New Loadshape.SFO_37.8764_-122.3414_15_270 npts=2016 interval=0.25 mult = (dblFile=../../../../../profiles/SFO_37.8764_-122.3414_15_270.sng)

New Loadshape.SFO_37.8764_-122.3414_35_270 npts=2016 interval=0.25 mult = (dblFile=../../../../../profiles/SFO_37.8764_-122.3414_35_270.sng)

New Loadshape.SFO_37.8764_-122.3414_15_180 npts=2016 interval=0.25 mult = (dblFile=../../../../../profiles/SFO_37.8764_-122.3414_15_180.sng)

New Loadshape.SFO_37.8764_-122.3414_15_135 npts=2016 interval=0.25 mult = (dblFile=../../../../../profiles/SFO_37.8764_-122.3414_15_135.sng)

New Loadshape.SFO_37.8764_-122.3414_35_180 npts=2016 interval=0.25 mult = (dblFile=../../../../../profiles/SFO_37.8764_-122.3414_35_180.sng)

New Loadshape.SFO_37.8764_-122.3414_25_135 npts=2016 interval=0.25 mult = (dblFile=../../../../../profiles/SFO_37.8764_-122.3414_25_135.sng)

New Loadshape.SFO_37.8764_-122.3414_25_90 npts=2016 interval=0.25 mult = (dblFile=../../../../../profiles/SFO_37.8764_-122.3414_25_90.sng)

New Loadshape.SFO_37.8764_-122.3414_35_225 npts=2016 interval=0.25 mult = (dblFile=../../../../../profiles/SFO_37.8764_-122.3414_35_225.sng)

New Loadshape.SFO_37.8764_-122.3414_25_270 npts=2016 interval=0.25 mult = (dblFile=../../../../../profiles/SFO_37.8764_-122.3414_25_270.sng)

New Loadshape.SFO_37.8764_-122.3414_15_90 npts=2016 interval=0.25 mult = (dblFile=../../../../../profiles/SFO_37.8764_-122.3414_15_90.sng)

New Loadshape.SFO_37.8764_-122.3414_25_180 npts=2016 interval=0.25 mult = (dblFile=../../../../../profiles/SFO_37.8764_-122.3414_25_180.sng)

New Loadshape.SFO_37.8764_-122.3414_35_135 npts=2016 interval=0.25 mult = (dblFile=../../../../../profiles/SFO_37.8764_-122.3414_35_135.sng)

New Loadshape.SFO_37.8764_-122.3414_45_270 npts=2016 interval=0.25 mult = (dblFile=../../../../../profiles/SFO_37.8764_-122.3414_45_270.sng)

New Loadshape.SFO_37.8764_-122.3414_25_225 npts=2016 interval=0.25 mult = (dblFile=../../../../../profiles/SFO_37.8764_-122.3414_25_225.sng)

New Loadshape.SFO_37.8764_-122.3414_45_135 npts=2016 interval=0.25 mult = (dblFile=../../../../../profiles/SFO_37.8764_-122.3414_45_135.sng)

New Loadshape.SFO_37.8764_-122.3414_15_225 npts=2016 interval=0.25 mult = (dblFile=../../../../../profiles/SFO_37.8764_-122.3414_15_225.sng)

New Loadshape.SFO_37.8764_-122.3414_35_90 npts=2016 interval=0.25 mult = (dblFile=../../../../../profiles/SFO_37.8764_-122.3414_35_90.sng)

New Loadshape.SFO_37.8764_-122.3414_45_90 npts=2016 interval=0.25 mult = (dblFile=../../../../../profiles/SFO_37.8764_-122.3414_45_90.sng)

New Loadshape.SFO_37.8764_-122.3414_45_180 npts=2016 interval=0.25 mult = (dblFile=../../../../../profiles/SFO_37.8764_-122.3414_45_180.sng)

New Loadshape.SFO_37.8764_-122.3414_45_225 npts=2016 interval=0.25 mult = (dblFile=../../../../../profiles/SFO_37.8764_-122.3414_45_225.sng)

New Loadshape.res_kw_8344_pu npts=2016 interval=0.25 mult = (dblFile=../../../../../profiles/res_kw_8344_pu.sng) qmult = (dblFile=../../../../../profiles/res_kvar_8344_pu.sng)

New Loadshape.res_kw_3277_pu npts=2016 interval=0.25 mult = (dblFile=../../../../../profiles/res_kw_3277_pu.sng) qmult = (dblFile=../../../../../profiles/res_kvar_3277_pu.sng)

New Loadshape.res_kw_10186_pu npts=2016 interval=0.25 mult = (dblFile=../../../../../profiles/res_kw_10186_pu.sng) qmult = (dblFile=../../../../../profiles/res_kvar_10186_pu.sng)

New Loadshape.res_kw_9190_pu npts=2016 interval=0.25 mult = (dblFile=../../../../../profiles/res_kw_9190_pu.sng) qmult = (dblFile=../../../../../profiles/res_kvar_9190_pu.sng)

New Loadshape.res_kw_10713_pu npts=2016 interval=0.25 mult = (dblFile=../../../../../profiles/res_kw_10713_pu.sng) qmult = (dblFile=../../../../../profiles/res_kvar_10713_pu.sng)

New Loadshape.res_kw_8893_pu npts=2016 interval=0.25 mult = (dblFile=../../../../../profiles/res_kw_8893_pu.sng) qmult = (dblFile=../../../../../profiles/res_kvar_8893_pu.sng)

New Loadshape.res_kw_12102_pu npts=2016 interval=0.25 mult = (dblFile=../../../../../profiles/res_kw_12102_pu.sng) qmult = (dblFile=../../../../../profiles/res_kvar_12102_pu.sng)

New Loadshape.res_kw_4549_pu npts=2016 interval=0.25 mult = (dblFile=../../../../../profiles/res_kw_4549_pu.sng) qmult = (dblFile=../../../../../profiles/res_kvar_4549_pu.sng)

New Loadshape.res_kw_9185_pu npts=2016 interval=0.25 mult = (dblFile=../../../../../profiles/res_kw_9185_pu.sng) qmult = (dblFile=../../../../../profiles/res_kvar_9185_pu.sng)

New Loadshape.res_kw_1573_pu npts=2016 interval=0.25 mult = (dblFile=../../../../../profiles/res_kw_1573_pu.sng) qmult = (dblFile=../../../../../profiles/res_kvar_1573_pu.sng)

New Loadshape.res_kw_1456_pu npts=2016 interval=0.25 mult = (dblFile=../../../../../profiles/res_kw_1456_pu.sng) qmult = (dblFile=../../../../../profiles/res_kvar_1456_pu.sng)

New Loadshape.res_kw_5121_pu npts=2016 interval=0.25 mult = (dblFile=../../../../../profiles/res_kw_5121_pu.sng) qmult = (dblFile=../../../../../profiles/res_kvar_5121_pu.sng)

New Loadshape.res_kw_119_pu npts=2016 interval=0.25 mult = (dblFile=../../../../../profiles/res_kw_119_pu.sng) qmult = (dblFile=../../../../../profiles/res_kvar_119_pu.sng)

New Loadshape.res_kw_6237_pu npts=2016 interval=0.25 mult = (dblFile=../../../../../profiles/res_kw_6237_pu.sng) qmult = (dblFile=../../../../../profiles/res_kvar_6237_pu.sng)

New Loadshape.res_kw_10262_pu npts=2016 interval=0.25 mult = (dblFile=../../../../../profiles/res_kw_10262_pu.sng) qmult = (dblFile=../../../../../profiles/res_kvar_10262_pu.sng)

New Loadshape.res_kw_7581_pu npts=2016 interval=0.25 mult = (dblFile=../../../../../profiles/res_kw_7581_pu.sng) qmult = (dblFile=../../../../../profiles/res_kvar_7581_pu.sng)

New Loadshape.res_kw_3669_pu npts=2016 interval=0.25 mult = (dblFile=../../../../../profiles/res_kw_3669_pu.sng) qmult = (dblFile=../../../../../profiles/res_kvar_3669_pu.sng)

New Loadshape.res_kw_804_pu npts=2016 interval=0.25 mult = (dblFile=../../../../../profiles/res_kw_804_pu.sng) qmult = (dblFile=../../../../../profiles/res_kvar_804_pu.sng)

New Loadshape.res_kw_3630_pu npts=2016 interval=0.25 mult = (dblFile=../../../../../profiles/res_kw_3630_pu.sng) qmult = (dblFile=../../../../../profiles/res_kvar_3630_pu.sng)

New Loadshape.res_kw_9887_pu npts=2016 interval=0.25 mult = (dblFile=../../../../../profiles/res_kw_9887_pu.sng) qmult = (dblFile=../../../../../profiles/res_kvar_9887_pu.sng)

New Loadshape.res_kw_14894_pu npts=2016 interval=0.25 mult = (dblFile=../../../../../profiles/res_kw_14894_pu.sng) qmult = (dblFile=../../../../../profiles/res_kvar_14894_pu.sng)

New Loadshape.res_kw_2524_pu npts=2016 interval=0.25 mult = (dblFile=../../../../../profiles/res_kw_2524_pu.sng) qmult = (dblFile=../../../../../profiles/res_kvar_2524_pu.sng)

New Loadshape.res_kw_2650_pu npts=2016 interval=0.25 mult = (dblFile=../../../../../profiles/res_kw_2650_pu.sng) qmult = (dblFile=../../../../../profiles/res_kvar_2650_pu.sng)

New Loadshape.res_kw_1767_pu npts=2016 interval=0.25 mult = (dblFile=../../../../../profiles/res_kw_1767_pu.sng) qmult = (dblFile=../../../../../profiles/res_kvar_1767_pu.sng)

New Loadshape.res_kw_3481_pu npts=2016 interval=0.25 mult = (dblFile=../../../../../profiles/res_kw_3481_pu.sng) qmult = (dblFile=../../../../../profiles/res_kvar_3481_pu.sng)

New Loadshape.res_kw_9693_pu npts=2016 interval=0.25 mult = (dblFile=../../../../../profiles/res_kw_9693_pu.sng) qmult = (dblFile=../../../../../profiles/res_kvar_9693_pu.sng)

New Loadshape.res_kw_5017_pu npts=2016 interval=0.25 mult = (dblFile=../../../../../profiles/res_kw_5017_pu.sng) qmult = (dblFile=../../../../../profiles/res_kvar_5017_pu.sng)

New Loadshape.res_kw_9694_pu npts=2016 interval=0.25 mult = (dblFile=../../../../../profiles/res_kw_9694_pu.sng) qmult = (dblFile=../../../../../profiles/res_kvar_9694_pu.sng)

New Loadshape.res_kw_7539_pu npts=2016 interval=0.25 mult = (dblFile=../../../../../profiles/res_kw_7539_pu.sng) qmult = (dblFile=../../../../../profiles/res_kvar_7539_pu.sng)

New Loadshape.res_kw_8466_pu npts=2016 interval=0.25 mult = (dblFile=../../../../../profiles/res_kw_8466_pu.sng) qmult = (dblFile=../../../../../profiles/res_kvar_8466_pu.sng)

New Loadshape.res_kw_180_pu npts=2016 interval=0.25 mult = (dblFile=../../../../../profiles/res_kw_180_pu.sng) qmult = (dblFile=../../../../../profiles/res_kvar_180_pu.sng)

New Loadshape.res_kw_4692_pu npts=2016 interval=0.25 mult = (dblFile=../../../../../profiles/res_kw_4692_pu.sng) qmult = (dblFile=../../../../../profiles/res_kvar_4692_pu.sng)

New Loadshape.res_kw_2251_pu npts=2016 interval=0.25 mult = (dblFile=../../../../../profiles/res_kw_2251_pu.sng) qmult = (dblFile=../../../../../profiles/res_kvar_2251_pu.sng)

New Loadshape.res_kw_4247_pu npts=2016 interval=0.25 mult = (dblFile=../../../../../profiles/res_kw_4247_pu.sng) qmult = (dblFile=../../../../../profiles/res_kvar_4247_pu.sng)

New Loadshape.res_kw_12082_pu npts=2016 interval=0.25 mult = (dblFile=../../../../../profiles/res_kw_12082_pu.sng) qmult = (dblFile=../../../../../profiles/res_kvar_12082_pu.sng)

New Loadshape.res_kw_10654_pu npts=2016 interval=0.25 mult = (dblFile=../../../../../profiles/res_kw_10654_pu.sng) qmult = (dblFile=../../../../../profiles/res_kvar_10654_pu.sng)

New Loadshape.res_kw_3883_pu npts=2016 interval=0.25 mult = (dblFile=../../../../../profiles/res_kw_3883_pu.sng) qmult = (dblFile=../../../../../profiles/res_kvar_3883_pu.sng)

New Loadshape.res_kw_396_pu npts=2016 interval=0.25 mult = (dblFile=../../../../../profiles/res_kw_396_pu.sng) qmult = (dblFile=../../../../../profiles/res_kvar_396_pu.sng)

New Loadshape.res_kw_10885_pu npts=2016 interval=0.25 mult = (dblFile=../../../../../profiles/res_kw_10885_pu.sng) qmult = (dblFile=../../../../../profiles/res_kvar_10885_pu.sng)

New Loadshape.res_kw_13545_pu npts=2016 interval=0.25 mult = (dblFile=../../../../../profiles/res_kw_13545_pu.sng) qmult = (dblFile=../../../../../profiles/res_kvar_13545_pu.sng)

New Loadshape.res_kw_12216_pu npts=2016 interval=0.25 mult = (dblFile=../../../../../profiles/res_kw_12216_pu.sng) qmult = (dblFile=../../../../../profiles/res_kvar_12216_pu.sng)

New Loadshape.res_kw_23_pu npts=2016 interval=0.25 mult = (dblFile=../../../../../profiles/res_kw_23_pu.sng) qmult = (dblFile=../../../../../profiles/res_kvar_23_pu.sng)

New Loadshape.res_kw_14821_pu npts=2016 interval=0.25 mult = (dblFile=../../../../../profiles/res_kw_14821_pu.sng) qmult = (dblFile=../../../../../profiles/res_kvar_14821_pu.sng)

New Loadshape.res_kw_11420_pu npts=2016 interval=0.25 mult = (dblFile=../../../../../profiles/res_kw_11420_pu.sng) qmult = (dblFile=../../../../../profiles/res_kvar_11420_pu.sng)

New Loadshape.res_kw_10614_pu npts=2016 interval=0.25 mult = (dblFile=../../../../../profiles/res_kw_10614_pu.sng) qmult = (dblFile=../../../../../profiles/res_kvar_10614_pu.sng)

New Loadshape.res_kw_12402_pu npts=2016 interval=0.25 mult = (dblFile=../../../../../profiles/res_kw_12402_pu.sng) qmult = (dblFile=../../../../../profiles/res_kvar_12402_pu.sng)

New Loadshape.res_kw_8996_pu npts=2016 interval=0.25 mult = (dblFile=../../../../../profiles/res_kw_8996_pu.sng) qmult = (dblFile=../../../../../profiles/res_kvar_8996_pu.sng)

New Loadshape.res_kw_8861_pu npts=2016 interval=0.25 mult = (dblFile=../../../../../profiles/res_kw_8861_pu.sng) qmult = (dblFile=../../../../../profiles/res_kvar_8861_pu.sng)

New Loadshape.res_kw_4894_pu npts=2016 interval=0.25 mult = (dblFile=../../../../../profiles/res_kw_4894_pu.sng) qmult = (dblFile=../../../../../profiles/res_kvar_4894_pu.sng)

New Loadshape.res_kw_2544_pu npts=2016 interval=0.25 mult = (dblFile=../../../../../profiles/res_kw_2544_pu.sng) qmult = (dblFile=../../../../../profiles/res_kvar_2544_pu.sng)

New Loadshape.res_kw_12375_pu npts=2016 interval=0.25 mult = (dblFile=../../../../../profiles/res_kw_12375_pu.sng) qmult = (dblFile=../../../../../profiles/res_kvar_12375_pu.sng)

New Loadshape.res_kw_14078_pu npts=2016 interval=0.25 mult = (dblFile=../../../../../profiles/res_kw_14078_pu.sng) qmult = (dblFile=../../../../../profiles/res_kvar_14078_pu.sng)

New Loadshape.res_kw_9991_pu npts=2016 interval=0.25 mult = (dblFile=../../../../../profiles/res_kw_9991_pu.sng) qmult = (dblFile=../../../../../profiles/res_kvar_9991_pu.sng)

New Loadshape.res_kw_12611_pu npts=2016 interval=0.25 mult = (dblFile=../../../../../profiles/res_kw_12611_pu.sng) qmult = (dblFile=../../../../../profiles/res_kvar_12611_pu.sng)

New Loadshape.res_kw_1930_pu npts=2016 interval=0.25 mult = (dblFile=../../../../../profiles/res_kw_1930_pu.sng) qmult = (dblFile=../../../../../profiles/res_kvar_1930_pu.sng)

New Loadshape.res_kw_10025_pu npts=2016 interval=0.25 mult = (dblFile=../../../../../profiles/res_kw_10025_pu.sng) qmult = (dblFile=../../../../../profiles/res_kvar_10025_pu.sng)

New Loadshape.res_kw_9257_pu npts=2016 interval=0.25 mult = (dblFile=../../../../../profiles/res_kw_9257_pu.sng) qmult = (dblFile=../../../../../profiles/res_kvar_9257_pu.sng)

New Loadshape.res_kw_4285_pu npts=2016 interval=0.25 mult = (dblFile=../../../../../profiles/res_kw_4285_pu.sng) qmult = (dblFile=../../../../../profiles/res_kvar_4285_pu.sng)

New Loadshape.res_kw_4599_pu npts=2016 interval=0.25 mult = (dblFile=../../../../../profiles/res_kw_4599_pu.sng) qmult = (dblFile=../../../../../profiles/res_kvar_4599_pu.sng)

New Loadshape.res_kw_3600_pu npts=2016 interval=0.25 mult = (dblFile=../../../../../profiles/res_kw_3600_pu.sng) qmult = (dblFile=../../../../../profiles/res_kvar_3600_pu.sng)

New Loadshape.res_kw_10414_pu npts=2016 interval=0.25 mult = (dblFile=../../../../../profiles/res_kw_10414_pu.sng) qmult = (dblFile=../../../../../profiles/res_kvar_10414_pu.sng)

New Loadshape.res_kw_3899_pu npts=2016 interval=0.25 mult = (dblFile=../../../../../profiles/res_kw_3899_pu.sng) qmult = (dblFile=../../../../../profiles/res_kvar_3899_pu.sng)

New Loadshape.res_kw_6979_pu npts=2016 interval=0.25 mult = (dblFile=../../../../../profiles/res_kw_6979_pu.sng) qmult = (dblFile=../../../../../profiles/res_kvar_6979_pu.sng)

New Loadshape.res_kw_7726_pu npts=2016 interval=0.25 mult = (dblFile=../../../../../profiles/res_kw_7726_pu.sng) qmult = (dblFile=../../../../../profiles/res_kvar_7726_pu.sng)

New Loadshape.res_kw_5413_pu npts=2016 interval=0.25 mult = (dblFile=../../../../../profiles/res_kw_5413_pu.sng) qmult = (dblFile=../../../../../profiles/res_kvar_5413_pu.sng)

New Loadshape.res_kw_4012_pu npts=2016 interval=0.25 mult = (dblFile=../../../../../profiles/res_kw_4012_pu.sng) qmult = (dblFile=../../../../../profiles/res_kvar_4012_pu.sng)

New Loadshape.res_kw_2365_pu npts=2016 interval=0.25 mult = (dblFile=../../../../../profiles/res_kw_2365_pu.sng) qmult = (dblFile=../../../../../profiles/res_kvar_2365_pu.sng)

New Loadshape.res_kw_7785_pu npts=2016 interval=0.25 mult = (dblFile=../../../../../profiles/res_kw_7785_pu.sng) qmult = (dblFile=../../../../../profiles/res_kvar_7785_pu.sng)

New Loadshape.res_kw_11212_pu npts=2016 interval=0.25 mult = (dblFile=../../../../../profiles/res_kw_11212_pu.sng) qmult = (dblFile=../../../../../profiles/res_kvar_11212_pu.sng)

New Loadshape.res_kw_1079_pu npts=2016 interval=0.25 mult = (dblFile=../../../../../profiles/res_kw_1079_pu.sng) qmult = (dblFile=../../../../../profiles/res_kvar_1079_pu.sng)

New Loadshape.res_kw_10991_pu npts=2016 interval=0.25 mult = (dblFile=../../../../../profiles/res_kw_10991_pu.sng) qmult = (dblFile=../../../../../profiles/res_kvar_10991_pu.sng)

New Loadshape.res_kw_753_pu npts=2016 interval=0.25 mult = (dblFile=../../../../../profiles/res_kw_753_pu.sng) qmult = (dblFile=../../../../../profiles/res_kvar_753_pu.sng)

New Loadshape.res_kw_12323_pu npts=2016 interval=0.25 mult = (dblFile=../../../../../profiles/res_kw_12323_pu.sng) qmult = (dblFile=../../../../../profiles/res_kvar_12323_pu.sng)

New Loadshape.res_kw_9393_pu npts=2016 interval=0.25 mult = (dblFile=../../../../../profiles/res_kw_9393_pu.sng) qmult = (dblFile=../../../../../profiles/res_kvar_9393_pu.sng)

New Loadshape.res_kw_14283_pu npts=2016 interval=0.25 mult = (dblFile=../../../../../profiles/res_kw_14283_pu.sng) qmult = (dblFile=../../../../../profiles/res_kvar_14283_pu.sng)

New Loadshape.res_kw_5057_pu npts=2016 interval=0.25 mult = (dblFile=../../../../../profiles/res_kw_5057_pu.sng) qmult = (dblFile=../../../../../profiles/res_kvar_5057_pu.sng)

New Loadshape.res_kw_1970_pu npts=2016 interval=0.25 mult = (dblFile=../../../../../profiles/res_kw_1970_pu.sng) qmult = (dblFile=../../../../../profiles/res_kvar_1970_pu.sng)

New Loadshape.res_kw_996_pu npts=2016 interval=0.25 mult = (dblFile=../../../../../profiles/res_kw_996_pu.sng) qmult = (dblFile=../../../../../profiles/res_kvar_996_pu.sng)

New Loadshape.res_kw_5440_pu npts=2016 interval=0.25 mult = (dblFile=../../../../../profiles/res_kw_5440_pu.sng) qmult = (dblFile=../../../../../profiles/res_kvar_5440_pu.sng)

New Loadshape.res_kw_10035_pu npts=2016 interval=0.25 mult = (dblFile=../../../../../profiles/res_kw_10035_pu.sng) qmult = (dblFile=../../../../../profiles/res_kvar_10035_pu.sng)

New Loadshape.res_kw_6037_pu npts=2016 interval=0.25 mult = (dblFile=../../../../../profiles/res_kw_6037_pu.sng) qmult = (dblFile=../../../../../profiles/res_kvar_6037_pu.sng)

New Loadshape.res_kw_3985_pu npts=2016 interval=0.25 mult = (dblFile=../../../../../profiles/res_kw_3985_pu.sng) qmult = (dblFile=../../../../../profiles/res_kvar_3985_pu.sng)

New Loadshape.res_kw_4676_pu npts=2016 interval=0.25 mult = (dblFile=../../../../../profiles/res_kw_4676_pu.sng) qmult = (dblFile=../../../../../profiles/res_kvar_4676_pu.sng)

New Loadshape.res_kw_4811_pu npts=2016 interval=0.25 mult = (dblFile=../../../../../profiles/res_kw_4811_pu.sng) qmult = (dblFile=../../../../../profiles/res_kvar_4811_pu.sng)

New Loadshape.res_kw_4112_pu npts=2016 interval=0.25 mult = (dblFile=../../../../../profiles/res_kw_4112_pu.sng) qmult = (dblFile=../../../../../profiles/res_kvar_4112_pu.sng)

New Loadshape.res_kw_6452_pu npts=2016 interval=0.25 mult = (dblFile=../../../../../profiles/res_kw_6452_pu.sng) qmult = (dblFile=../../../../../profiles/res_kvar_6452_pu.sng)

New Loadshape.res_kw_13890_pu npts=2016 interval=0.25 mult = (dblFile=../../../../../profiles/res_kw_13890_pu.sng) qmult = (dblFile=../../../../../profiles/res_kvar_13890_pu.sng)

New Loadshape.res_kw_5231_pu npts=2016 interval=0.25 mult = (dblFile=../../../../../profiles/res_kw_5231_pu.sng) qmult = (dblFile=../../../../../profiles/res_kvar_5231_pu.sng)

New Loadshape.res_kw_2348_pu npts=2016 interval=0.25 mult = (dblFile=../../../../../profiles/res_kw_2348_pu.sng) qmult = (dblFile=../../../../../profiles/res_kvar_2348_pu.sng)

New Loadshape.res_kw_13063_pu npts=2016 interval=0.25 mult = (dblFile=../../../../../profiles/res_kw_13063_pu.sng) qmult = (dblFile=../../../../../profiles/res_kvar_13063_pu.sng)

New Loadshape.res_kw_1469_pu npts=2016 interval=0.25 mult = (dblFile=../../../../../profiles/res_kw_1469_pu.sng) qmult = (dblFile=../../../../../profiles/res_kvar_1469_pu.sng)

New Loadshape.res_kw_13482_pu npts=2016 interval=0.25 mult = (dblFile=../../../../../profiles/res_kw_13482_pu.sng) qmult = (dblFile=../../../../../profiles/res_kvar_13482_pu.sng)

New Loadshape.res_kw_5183_pu npts=2016 interval=0.25 mult = (dblFile=../../../../../profiles/res_kw_5183_pu.sng) qmult = (dblFile=../../../../../profiles/res_kvar_5183_pu.sng)

New Loadshape.res_kw_2888_pu npts=2016 interval=0.25 mult = (dblFile=../../../../../profiles/res_kw_2888_pu.sng) qmult = (dblFile=../../../../../profiles/res_kvar_2888_pu.sng)

New Loadshape.res_kw_7389_pu npts=2016 interval=0.25 mult = (dblFile=../../../../../profiles/res_kw_7389_pu.sng) qmult = (dblFile=../../../../../profiles/res_kvar_7389_pu.sng)

New Loadshape.res_kw_2943_pu npts=2016 interval=0.25 mult = (dblFile=../../../../../profiles/res_kw_2943_pu.sng) qmult = (dblFile=../../../../../profiles/res_kvar_2943_pu.sng)

New Loadshape.res_kw_13191_pu npts=2016 interval=0.25 mult = (dblFile=../../../../../profiles/res_kw_13191_pu.sng) qmult = (dblFile=../../../../../profiles/res_kvar_13191_pu.sng)

New Loadshape.res_kw_6730_pu npts=2016 interval=0.25 mult = (dblFile=../../../../../profiles/res_kw_6730_pu.sng) qmult = (dblFile=../../../../../profiles/res_kvar_6730_pu.sng)

New Loadshape.res_kw_14268_pu npts=2016 interval=0.25 mult = (dblFile=../../../../../profiles/res_kw_14268_pu.sng) qmult = (dblFile=../../../../../profiles/res_kvar_14268_pu.sng)

New Loadshape.res_kw_9108_pu npts=2016 interval=0.25 mult = (dblFile=../../../../../profiles/res_kw_9108_pu.sng) qmult = (dblFile=../../../../../profiles/res_kvar_9108_pu.sng)

New Loadshape.res_kw_2100_pu npts=2016 interval=0.25 mult = (dblFile=../../../../../profiles/res_kw_2100_pu.sng) qmult = (dblFile=../../../../../profiles/res_kvar_2100_pu.sng)

New Loadshape.res_kw_6308_pu npts=2016 interval=0.25 mult = (dblFile=../../../../../profiles/res_kw_6308_pu.sng) qmult = (dblFile=../../../../../profiles/res_kvar_6308_pu.sng)

New Loadshape.res_kw_9539_pu npts=2016 interval=0.25 mult = (dblFile=../../../../../profiles/res_kw_9539_pu.sng) qmult = (dblFile=../../../../../profiles/res_kvar_9539_pu.sng)

New Loadshape.res_kw_13652_pu npts=2016 interval=0.25 mult = (dblFile=../../../../../profiles/res_kw_13652_pu.sng) qmult = (dblFile=../../../../../profiles/res_kvar_13652_pu.sng)

New Loadshape.res_kw_2020_pu npts=2016 interval=0.25 mult = (dblFile=../../../../../profiles/res_kw_2020_pu.sng) qmult = (dblFile=../../../../../profiles/res_kvar_2020_pu.sng)

New Loadshape.res_kw_14911_pu npts=2016 interval=0.25 mult = (dblFile=../../../../../profiles/res_kw_14911_pu.sng) qmult = (dblFile=../../../../../profiles/res_kvar_14911_pu.sng)

New Loadshape.res_kw_13937_pu npts=2016 interval=0.25 mult = (dblFile=../../../../../profiles/res_kw_13937_pu.sng) qmult = (dblFile=../../../../../profiles/res_kvar_13937_pu.sng)

New Loadshape.res_kw_2553_pu npts=2016 interval=0.25 mult = (dblFile=../../../../../profiles/res_kw_2553_pu.sng) qmult = (dblFile=../../../../../profiles/res_kvar_2553_pu.sng)

New Loadshape.res_kw_12148_pu npts=2016 interval=0.25 mult = (dblFile=../../../../../profiles/res_kw_12148_pu.sng) qmult = (dblFile=../../../../../profiles/res_kvar_12148_pu.sng)

New Loadshape.res_kw_11951_pu npts=2016 interval=0.25 mult = (dblFile=../../../../../profiles/res_kw_11951_pu.sng) qmult = (dblFile=../../../../../profiles/res_kvar_11951_pu.sng)

New Loadshape.res_kw_14630_pu npts=2016 interval=0.25 mult = (dblFile=../../../../../profiles/res_kw_14630_pu.sng) qmult = (dblFile=../../../../../profiles/res_kvar_14630_pu.sng)

New Loadshape.res_kw_4944_pu npts=2016 interval=0.25 mult = (dblFile=../../../../../profiles/res_kw_4944_pu.sng) qmult = (dblFile=../../../../../profiles/res_kvar_4944_pu.sng)

New Loadshape.res_kw_9973_pu npts=2016 interval=0.25 mult = (dblFile=../../../../../profiles/res_kw_9973_pu.sng) qmult = (dblFile=../../../../../profiles/res_kvar_9973_pu.sng)

New Loadshape.res_kw_8004_pu npts=2016 interval=0.25 mult = (dblFile=../../../../../profiles/res_kw_8004_pu.sng) qmult = (dblFile=../../../../../profiles/res_kvar_8004_pu.sng)

New Loadshape.res_kw_9033_pu npts=2016 interval=0.25 mult = (dblFile=../../../../../profiles/res_kw_9033_pu.sng) qmult = (dblFile=../../../../../profiles/res_kvar_9033_pu.sng)

New Loadshape.res_kw_14328_pu npts=2016 interval=0.25 mult = (dblFile=../../../../../profiles/res_kw_14328_pu.sng) qmult = (dblFile=../../../../../profiles/res_kvar_14328_pu.sng)

New Loadshape.res_kw_7557_pu npts=2016 interval=0.25 mult = (dblFile=../../../../../profiles/res_kw_7557_pu.sng) qmult = (dblFile=../../../../../profiles/res_kvar_7557_pu.sng)

New Loadshape.res_kw_13474_pu npts=2016 interval=0.25 mult = (dblFile=../../../../../profiles/res_kw_13474_pu.sng) qmult = (dblFile=../../../../../profiles/res_kvar_13474_pu.sng)

New Loadshape.res_kw_1765_pu npts=2016 interval=0.25 mult = (dblFile=../../../../../profiles/res_kw_1765_pu.sng) qmult = (dblFile=../../../../../profiles/res_kvar_1765_pu.sng)

New Loadshape.res_kw_9045_pu npts=2016 interval=0.25 mult = (dblFile=../../../../../profiles/res_kw_9045_pu.sng) qmult = (dblFile=../../../../../profiles/res_kvar_9045_pu.sng)

New Loadshape.res_kw_6257_pu npts=2016 interval=0.25 mult = (dblFile=../../../../../profiles/res_kw_6257_pu.sng) qmult = (dblFile=../../../../../profiles/res_kvar_6257_pu.sng)

New Loadshape.res_kw_6240_pu npts=2016 interval=0.25 mult = (dblFile=../../../../../profiles/res_kw_6240_pu.sng) qmult = (dblFile=../../../../../profiles/res_kvar_6240_pu.sng)

New Loadshape.res_kw_4774_pu npts=2016 interval=0.25 mult = (dblFile=../../../../../profiles/res_kw_4774_pu.sng) qmult = (dblFile=../../../../../profiles/res_kvar_4774_pu.sng)

New Loadshape.res_kw_13833_pu npts=2016 interval=0.25 mult = (dblFile=../../../../../profiles/res_kw_13833_pu.sng) qmult = (dblFile=../../../../../profiles/res_kvar_13833_pu.sng)

New Loadshape.res_kw_10361_pu npts=2016 interval=0.25 mult = (dblFile=../../../../../profiles/res_kw_10361_pu.sng) qmult = (dblFile=../../../../../profiles/res_kvar_10361_pu.sng)

New Loadshape.res_kw_6915_pu npts=2016 interval=0.25 mult = (dblFile=../../../../../profiles/res_kw_6915_pu.sng) qmult = (dblFile=../../../../../profiles/res_kvar_6915_pu.sng)

New Loadshape.res_kw_9235_pu npts=2016 interval=0.25 mult = (dblFile=../../../../../profiles/res_kw_9235_pu.sng) qmult = (dblFile=../../../../../profiles/res_kvar_9235_pu.sng)

New Loadshape.res_kw_4541_pu npts=2016 interval=0.25 mult = (dblFile=../../../../../profiles/res_kw_4541_pu.sng) qmult = (dblFile=../../../../../profiles/res_kvar_4541_pu.sng)

New Loadshape.res_kw_7999_pu npts=2016 interval=0.25 mult = (dblFile=../../../../../profiles/res_kw_7999_pu.sng) qmult = (dblFile=../../../../../profiles/res_kvar_7999_pu.sng)

New Loadshape.res_kw_8761_pu npts=2016 interval=0.25 mult = (dblFile=../../../../../profiles/res_kw_8761_pu.sng) qmult = (dblFile=../../../../../profiles/res_kvar_8761_pu.sng)

New Loadshape.res_kw_10508_pu npts=2016 interval=0.25 mult = (dblFile=../../../../../profiles/res_kw_10508_pu.sng) qmult = (dblFile=../../../../../profiles/res_kvar_10508_pu.sng)

New Loadshape.res_kw_5197_pu npts=2016 interval=0.25 mult = (dblFile=../../../../../profiles/res_kw_5197_pu.sng) qmult = (dblFile=../../../../../profiles/res_kvar_5197_pu.sng)

New Loadshape.res_kw_9341_pu npts=2016 interval=0.25 mult = (dblFile=../../../../../profiles/res_kw_9341_pu.sng) qmult = (dblFile=../../../../../profiles/res_kvar_9341_pu.sng)

New Loadshape.res_kw_7012_pu npts=2016 interval=0.25 mult = (dblFile=../../../../../profiles/res_kw_7012_pu.sng) qmult = (dblFile=../../../../../profiles/res_kvar_7012_pu.sng)

New Loadshape.res_kw_8422_pu npts=2016 interval=0.25 mult = (dblFile=../../../../../profiles/res_kw_8422_pu.sng) qmult = (dblFile=../../../../../profiles/res_kvar_8422_pu.sng)

New Loadshape.res_kw_10231_pu npts=2016 interval=0.25 mult = (dblFile=../../../../../profiles/res_kw_10231_pu.sng) qmult = (dblFile=../../../../../profiles/res_kvar_10231_pu.sng)

New Loadshape.res_kw_4771_pu npts=2016 interval=0.25 mult = (dblFile=../../../../../profiles/res_kw_4771_pu.sng) qmult = (dblFile=../../../../../profiles/res_kvar_4771_pu.sng)

New Loadshape.res_kw_6478_pu npts=2016 interval=0.25 mult = (dblFile=../../../../../profiles/res_kw_6478_pu.sng) qmult = (dblFile=../../../../../profiles/res_kvar_6478_pu.sng)

New Loadshape.res_kw_2812_pu npts=2016 interval=0.25 mult = (dblFile=../../../../../profiles/res_kw_2812_pu.sng) qmult = (dblFile=../../../../../profiles/res_kvar_2812_pu.sng)

New Loadshape.res_kw_14693_pu npts=2016 interval=0.25 mult = (dblFile=../../../../../profiles/res_kw_14693_pu.sng) qmult = (dblFile=../../../../../profiles/res_kvar_14693_pu.sng)

New Loadshape.res_kw_4586_pu npts=2016 interval=0.25 mult = (dblFile=../../../../../profiles/res_kw_4586_pu.sng) qmult = (dblFile=../../../../../profiles/res_kvar_4586_pu.sng)

New Loadshape.res_kw_9830_pu npts=2016 interval=0.25 mult = (dblFile=../../../../../profiles/res_kw_9830_pu.sng) qmult = (dblFile=../../../../../profiles/res_kvar_9830_pu.sng)

New Loadshape.res_kw_12577_pu npts=2016 interval=0.25 mult = (dblFile=../../../../../profiles/res_kw_12577_pu.sng) qmult = (dblFile=../../../../../profiles/res_kvar_12577_pu.sng)

New Loadshape.res_kw_6166_pu npts=2016 interval=0.25 mult = (dblFile=../../../../../profiles/res_kw_6166_pu.sng) qmult = (dblFile=../../../../../profiles/res_kvar_6166_pu.sng)

New Loadshape.res_kw_11483_pu npts=2016 interval=0.25 mult = (dblFile=../../../../../profiles/res_kw_11483_pu.sng) qmult = (dblFile=../../../../../profiles/res_kvar_11483_pu.sng)

New Loadshape.res_kw_13594_pu npts=2016 interval=0.25 mult = (dblFile=../../../../../profiles/res_kw_13594_pu.sng) qmult = (dblFile=../../../../../profiles/res_kvar_13594_pu.sng)

New Loadshape.res_kw_7690_pu npts=2016 interval=0.25 mult = (dblFile=../../../../../profiles/res_kw_7690_pu.sng) qmult = (dblFile=../../../../../profiles/res_kvar_7690_pu.sng)

New Loadshape.res_kw_13785_pu npts=2016 interval=0.25 mult = (dblFile=../../../../../profiles/res_kw_13785_pu.sng) qmult = (dblFile=../../../../../profiles/res_kvar_13785_pu.sng)

New Loadshape.res_kw_1670_pu npts=2016 interval=0.25 mult = (dblFile=../../../../../profiles/res_kw_1670_pu.sng) qmult = (dblFile=../../../../../profiles/res_kvar_1670_pu.sng)

New Loadshape.res_kw_10355_pu npts=2016 interval=0.25 mult = (dblFile=../../../../../profiles/res_kw_10355_pu.sng) qmult = (dblFile=../../../../../profiles/res_kvar_10355_pu.sng)

New Loadshape.res_kw_3666_pu npts=2016 interval=0.25 mult = (dblFile=../../../../../profiles/res_kw_3666_pu.sng) qmult = (dblFile=../../../../../profiles/res_kvar_3666_pu.sng)

New Loadshape.res_kw_7695_pu npts=2016 interval=0.25 mult = (dblFile=../../../../../profiles/res_kw_7695_pu.sng) qmult = (dblFile=../../../../../profiles/res_kvar_7695_pu.sng)
