New Load.load_p13ulv19931 conn=wye bus1=p13ulv19931.1.2.3 kV=0.48 Vminpu=0.8 Vmaxpu=1.2 model=1 kW=58.35611137434244 kvar=14.397362886894932 Phases=3 yearly=com_kw_41463_pu

New Load.load_p13ulv19932_1 conn=wye bus1=p13ulv19932.1 kV=0.12 Vminpu=0.8 Vmaxpu=1.2 model=1 kW=6.634939990168256 kvar=2.87241787832124 Phases=1 yearly=res_kw_827_pu

New Load.load_p13ulv19932_2 conn=wye bus1=p13ulv19932.2 kV=0.12 Vminpu=0.8 Vmaxpu=1.2 model=1 kW=6.634939990168256 kvar=2.87241787832124 Phases=1 yearly=res_kw_827_pu

New Load.load_p13ulv19933 conn=wye bus1=p13ulv19933.1.2.3 kV=0.48 Vminpu=0.8 Vmaxpu=1.2 model=1 kW=29.945884138411813 kvar=8.304084025893854 Phases=3 yearly=com_kw_33740_pu

New Load.load_p13ulv19934_1 conn=wye bus1=p13ulv19934.1 kV=0.12 Vminpu=0.8 Vmaxpu=1.2 model=1 kW=2.7082973665153665 kvar=0.7953348867176135 Phases=1 yearly=com_kw_32175_pu

New Load.load_p13ulv19934_2 conn=wye bus1=p13ulv19934.2 kV=0.12 Vminpu=0.8 Vmaxpu=1.2 model=1 kW=2.7082973665153665 kvar=0.7953348867176135 Phases=1 yearly=com_kw_32175_pu

New Load.load_p13ulv19935_1 conn=wye bus1=p13ulv19935.1 kV=0.12 Vminpu=0.8 Vmaxpu=1.2 model=1 kW=6.972282801278424 kvar=0.6643674988475547 Phases=1 yearly=com_kw_35537_pu

New Load.load_p13ulv19935_2 conn=wye bus1=p13ulv19935.2 kV=0.12 Vminpu=0.8 Vmaxpu=1.2 model=1 kW=6.972282801278424 kvar=0.6643674988475547 Phases=1 yearly=com_kw_35537_pu

New Load.load_p13ulv19936 conn=wye bus1=p13ulv19936.1.2.3 kV=0.48 Vminpu=0.8 Vmaxpu=1.2 model=1 kW=44.29455878458918 kvar=8.912450497696593 Phases=3 yearly=com_kw_41573_pu

New Load.load_p13ulv19937 conn=wye bus1=p13ulv19937.1.2.3 kV=0.48 Vminpu=0.8 Vmaxpu=1.2 model=1 kW=38.656080729877004 kvar=13.6150896546777 Phases=3 yearly=com_kw_31868_pu

New Load.load_p13ulv19938 conn=wye bus1=p13ulv19938.1.2.3 kV=0.48 Vminpu=0.8 Vmaxpu=1.2 model=1 kW=84.53841571336648 kvar=3.6012891840901884 Phases=3 yearly=res_kw_9915_pu

New Load.load_p13ulv19939_1 conn=wye bus1=p13ulv19939.1 kV=0.12 Vminpu=0.8 Vmaxpu=1.2 model=1 kW=12.50350995434999 kvar=2.5067711157670263 Phases=1 yearly=res_kw_8859_pu

New Load.load_p13ulv19939_2 conn=wye bus1=p13ulv19939.2 kV=0.12 Vminpu=0.8 Vmaxpu=1.2 model=1 kW=12.50350995434999 kvar=2.5067711157670263 Phases=1 yearly=res_kw_8859_pu

New Load.load_p13ulv20023 conn=wye bus1=p13ulv20023.1.2.3 kV=0.48 Vminpu=0.8 Vmaxpu=1.2 model=1 kW=26.128358317182954 kvar=9.538260399566932 Phases=3 yearly=res_kw_4894_pu

New Load.load_p13ulv20024 conn=wye bus1=p13ulv20024.1.2.3 kV=0.48 Vminpu=0.8 Vmaxpu=1.2 model=1 kW=53.11284448411281 kvar=12.774723473118096 Phases=3 yearly=res_kw_8898_pu

New Load.load_p13ulv20025_1 conn=wye bus1=p13ulv20025.1 kV=0.12 Vminpu=0.8 Vmaxpu=1.2 model=1 kW=16.873145290591804 kvar=3.4173757813217813 Phases=1 yearly=res_kw_3365_pu

New Load.load_p13ulv20025_2 conn=wye bus1=p13ulv20025.2 kV=0.12 Vminpu=0.8 Vmaxpu=1.2 model=1 kW=16.873145290591804 kvar=3.4173757813217813 Phases=1 yearly=res_kw_3365_pu

New Load.load_p13ulv20031_1 conn=wye bus1=p13ulv20031.1 kV=0.12 Vminpu=0.8 Vmaxpu=1.2 model=1 kW=10.006881172742883 kvar=0.4052656535025447 Phases=1 yearly=com_kw_16160_pu

New Load.load_p13ulv20031_2 conn=wye bus1=p13ulv20031.2 kV=0.12 Vminpu=0.8 Vmaxpu=1.2 model=1 kW=10.006881172742883 kvar=0.4052656535025447 Phases=1 yearly=com_kw_16160_pu

New Load.load_p13ulv20032 conn=wye bus1=p13ulv20032.1.2.3 kV=0.48 Vminpu=0.8 Vmaxpu=1.2 model=1 kW=207.7961955100812 kvar=62.9751680304465 Phases=3 yearly=com_kw_33168_pu

New Load.load_p13ulv28480_1 conn=wye bus1=p13ulv28480.1 kV=0.12 Vminpu=0.8 Vmaxpu=1.2 model=1 kW=14.11626041069027 kvar=6.215698285630081 Phases=1 yearly=res_kw_12076_pu

New Load.load_p13ulv28480_2 conn=wye bus1=p13ulv28480.2 kV=0.12 Vminpu=0.8 Vmaxpu=1.2 model=1 kW=14.11626041069027 kvar=6.215698285630081 Phases=1 yearly=res_kw_12076_pu

New Load.load_p13ulv28481_1 conn=wye bus1=p13ulv28481.1 kV=0.12 Vminpu=0.8 Vmaxpu=1.2 model=1 kW=5.5661302619198825 kvar=1.8204555394405488 Phases=1 yearly=res_kw_11448_pu

New Load.load_p13ulv28481_2 conn=wye bus1=p13ulv28481.2 kV=0.12 Vminpu=0.8 Vmaxpu=1.2 model=1 kW=5.5661302619198825 kvar=1.8204555394405488 Phases=1 yearly=res_kw_11448_pu

New Load.load_p13ulv28482 conn=wye bus1=p13ulv28482.1.2.3 kV=0.48 Vminpu=0.8 Vmaxpu=1.2 model=1 kW=77.21001538189063 kvar=11.963529502570625 Phases=3 yearly=res_kw_11924_pu

New Load.load_p13ulv28483 conn=wye bus1=p13ulv28483.1.2.3 kV=0.48 Vminpu=0.8 Vmaxpu=1.2 model=1 kW=71.9129638638261 kvar=20.753982325695834 Phases=3 yearly=res_kw_3588_pu

New Load.load_p13ulv28484 conn=wye bus1=p13ulv28484.1.2.3 kV=0.48 Vminpu=0.8 Vmaxpu=1.2 model=1 kW=46.54425550806805 kvar=19.30179204391886 Phases=3 yearly=com_kw_32051_pu

New Load.load_p13ulv28485_1 conn=wye bus1=p13ulv28485.1 kV=0.12 Vminpu=0.8 Vmaxpu=1.2 model=1 kW=4.237064396976419 kvar=0.25029256707639685 Phases=1 yearly=com_kw_1949_pu

New Load.load_p13ulv28485_2 conn=wye bus1=p13ulv28485.2 kV=0.12 Vminpu=0.8 Vmaxpu=1.2 model=1 kW=4.237064396976419 kvar=0.25029256707639685 Phases=1 yearly=com_kw_1949_pu

New Load.load_p13ulv28486_1 conn=wye bus1=p13ulv28486.1 kV=0.12 Vminpu=0.8 Vmaxpu=1.2 model=1 kW=9.173176513194342 kvar=2.401567603411408 Phases=1 yearly=com_kw_16325_pu

New Load.load_p13ulv28486_2 conn=wye bus1=p13ulv28486.2 kV=0.12 Vminpu=0.8 Vmaxpu=1.2 model=1 kW=9.173176513194342 kvar=2.401567603411408 Phases=1 yearly=com_kw_16325_pu

New Load.load_p13ulv28487 conn=wye bus1=p13ulv28487.1.2.3 kV=0.48 Vminpu=0.8 Vmaxpu=1.2 model=1 kW=65.79667572762271 kvar=17.592249672535914 Phases=3 yearly=com_kw_39415_pu

New Load.load_p13ulv28488 conn=wye bus1=p13ulv28488.1.2.3 kV=0.48 Vminpu=0.8 Vmaxpu=1.2 model=1 kW=21.410969142342623 kvar=5.7729430599928655 Phases=3 yearly=com_kw_39977_pu

New Load.load_p13ulv28489_1 conn=wye bus1=p13ulv28489.1 kV=0.12 Vminpu=0.8 Vmaxpu=1.2 model=1 kW=5.7965198206506185 kvar=1.3170178860793145 Phases=1 yearly=com_kw_31492_pu

New Load.load_p13ulv28489_2 conn=wye bus1=p13ulv28489.2 kV=0.12 Vminpu=0.8 Vmaxpu=1.2 model=1 kW=5.7965198206506185 kvar=1.3170178860793145 Phases=1 yearly=com_kw_31492_pu

New Load.load_p13ulv28490_1 conn=wye bus1=p13ulv28490.1 kV=0.12 Vminpu=0.8 Vmaxpu=1.2 model=1 kW=4.7076276637974575 kvar=1.4384167252185296 Phases=1 yearly=com_kw_2109_pu

New Load.load_p13ulv28490_2 conn=wye bus1=p13ulv28490.2 kV=0.12 Vminpu=0.8 Vmaxpu=1.2 model=1 kW=4.7076276637974575 kvar=1.4384167252185296 Phases=1 yearly=com_kw_2109_pu

New Load.load_p13ulv28491 conn=wye bus1=p13ulv28491.1.2.3 kV=0.48 Vminpu=0.8 Vmaxpu=1.2 model=1 kW=51.70940561886608 kvar=13.638522124246219 Phases=3 yearly=com_kw_17937_pu

New Load.load_p13ulv28492 conn=wye bus1=p13ulv28492.1.2.3 kV=0.48 Vminpu=0.8 Vmaxpu=1.2 model=1 kW=33.74581770628011 kvar=8.7609461959239 Phases=3 yearly=com_kw_16107_pu

New Load.load_p13ulv28493 conn=wye bus1=p13ulv28493.1.2.3 kV=0.48 Vminpu=0.8 Vmaxpu=1.2 model=1 kW=25.449461273012503 kvar=7.75984464591506 Phases=3 yearly=com_kw_17581_pu

New Load.load_p13ulv28494 conn=wye bus1=p13ulv28494.1.2.3 kV=0.48 Vminpu=0.8 Vmaxpu=1.2 model=1 kW=50.293141585478416 kvar=7.850820352224766 Phases=3 yearly=res_kw_11564_pu

New Load.load_p13ulv28495 conn=wye bus1=p13ulv28495.1.2.3 kV=0.48 Vminpu=0.8 Vmaxpu=1.2 model=1 kW=42.15804967437674 kvar=10.252789913315052 Phases=3 yearly=com_kw_19561_pu

New Load.load_p13ulv28496 conn=wye bus1=p13ulv28496.1.2.3 kV=0.48 Vminpu=0.8 Vmaxpu=1.2 model=1 kW=52.279370297554856 kvar=21.62897812685409 Phases=3 yearly=res_kw_14789_pu

New Load.load_p13ulv28497_1 conn=wye bus1=p13ulv28497.1 kV=0.12 Vminpu=0.8 Vmaxpu=1.2 model=1 kW=5.5661302619198825 kvar=1.8204555394405488 Phases=1 yearly=res_kw_11448_pu

New Load.load_p13ulv28497_2 conn=wye bus1=p13ulv28497.2 kV=0.12 Vminpu=0.8 Vmaxpu=1.2 model=1 kW=5.5661302619198825 kvar=1.8204555394405488 Phases=1 yearly=res_kw_11448_pu

New Load.load_p13ulv28498 conn=wye bus1=p13ulv28498.1.2.3 kV=0.48 Vminpu=0.8 Vmaxpu=1.2 model=1 kW=48.19025251061392 kvar=12.751308969386315 Phases=3 yearly=com_kw_19744_pu

New Load.load_p13ulv28499 conn=wye bus1=p13ulv28499.1.2.3 kV=0.48 Vminpu=0.8 Vmaxpu=1.2 model=1 kW=51.02722829292636 kvar=15.364330182127258 Phases=3 yearly=com_kw_18289_pu

New Load.load_p13ulv28500 conn=wye bus1=p13ulv28500.1.2.3 kV=0.48 Vminpu=0.8 Vmaxpu=1.2 model=1 kW=163.31579326712458 kvar=46.58692769968091 Phases=3 yearly=com_kw_17097_pu

New Load.load_p13ulv28501 conn=wye bus1=p13ulv28501.1.2.3 kV=0.48 Vminpu=0.8 Vmaxpu=1.2 model=1 kW=52.18388281003105 kvar=14.088025652747325 Phases=3 yearly=res_kw_10046_pu

New Load.load_p13ulv28502 conn=wye bus1=p13ulv28502.1.2.3 kV=0.48 Vminpu=0.8 Vmaxpu=1.2 model=1 kW=51.449762773163634 kvar=3.4596412069486595 Phases=3 yearly=com_kw_41570_pu

New Load.load_p13ulv28503 conn=wye bus1=p13ulv28503.1.2.3 kV=0.48 Vminpu=0.8 Vmaxpu=1.2 model=1 kW=43.26522971706406 kvar=11.650804405281649 Phases=3 yearly=com_kw_35603_pu

New Load.load_p13ulv28504 conn=wye bus1=p13ulv28504.1.2.3 kV=0.48 Vminpu=0.8 Vmaxpu=1.2 model=1 kW=49.10654440559821 kvar=12.199246684871659 Phases=3 yearly=com_kw_31447_pu

New Load.load_p13ulv28505_1 conn=wye bus1=p13ulv28505.1 kV=0.12 Vminpu=0.8 Vmaxpu=1.2 model=1 kW=9.173176513194342 kvar=2.401567603411408 Phases=1 yearly=com_kw_16325_pu

New Load.load_p13ulv28505_2 conn=wye bus1=p13ulv28505.2 kV=0.12 Vminpu=0.8 Vmaxpu=1.2 model=1 kW=9.173176513194342 kvar=2.401567603411408 Phases=1 yearly=com_kw_16325_pu

New Load.load_p13ulv28506 conn=wye bus1=p13ulv28506.1.2.3 kV=0.48 Vminpu=0.8 Vmaxpu=1.2 model=1 kW=131.13217481491932 kvar=38.62773894649657 Phases=3 yearly=com_kw_33903_pu

New Load.load_p13ulv28507 conn=wye bus1=p13ulv28507.1.2.3 kV=0.48 Vminpu=0.8 Vmaxpu=1.2 model=1 kW=32.67587050918465 kvar=9.92119682672147 Phases=3 yearly=com_kw_2818_pu

New Load.load_p13ulv28508_1 conn=wye bus1=p13ulv28508.1 kV=0.12 Vminpu=0.8 Vmaxpu=1.2 model=1 kW=5.484916101426202 kvar=1.6302549722872932 Phases=1 yearly=com_kw_20964_pu

New Load.load_p13ulv28508_2 conn=wye bus1=p13ulv28508.2 kV=0.12 Vminpu=0.8 Vmaxpu=1.2 model=1 kW=5.484916101426202 kvar=1.6302549722872932 Phases=1 yearly=com_kw_20964_pu

New Load.load_p13ulv28509_1 conn=wye bus1=p13ulv28509.1 kV=0.12 Vminpu=0.8 Vmaxpu=1.2 model=1 kW=6.453865161078197 kvar=1.7929075674723451 Phases=1 yearly=com_kw_17132_pu

New Load.load_p13ulv28509_2 conn=wye bus1=p13ulv28509.2 kV=0.12 Vminpu=0.8 Vmaxpu=1.2 model=1 kW=6.453865161078197 kvar=1.7929075674723451 Phases=1 yearly=com_kw_17132_pu

New Load.load_p13ulv28510 conn=wye bus1=p13ulv28510.1.2.3 kV=0.48 Vminpu=0.8 Vmaxpu=1.2 model=1 kW=231.0361272879893 kvar=46.31834639682665 Phases=3 yearly=res_kw_2331_pu

New Load.load_p13ulv28511 conn=wye bus1=p13ulv28511.1.2.3 kV=0.48 Vminpu=0.8 Vmaxpu=1.2 model=1 kW=115.22059664892895 kvar=25.954908027681267 Phases=3 yearly=res_kw_4284_pu

New Load.load_p13ulv28512 conn=wye bus1=p13ulv28512.1.2.3 kV=0.48 Vminpu=0.8 Vmaxpu=1.2 model=1 kW=31.798543181470013 kvar=9.50589923616599 Phases=3 yearly=com_kw_35609_pu

New Load.load_p13ulv28513 conn=wye bus1=p13ulv28512.1.2.3 kV=0.48 Vminpu=0.8 Vmaxpu=1.2 model=1 kW=19.74715008075674 kvar=5.062008479290293 Phases=3 yearly=com_kw_19572_pu

New Load.load_p13ulv28514 conn=wye bus1=p13ulv28514.1.2.3 kV=0.48 Vminpu=0.8 Vmaxpu=1.2 model=1 kW=39.25318049783383 kvar=8.474026277590418 Phases=3 yearly=res_kw_223_pu

New Load.load_p13ulv28515 conn=wye bus1=p13ulv28515.1.2.3 kV=0.48 Vminpu=0.8 Vmaxpu=1.2 model=1 kW=71.28868936277567 kvar=19.08157462871685 Phases=3 yearly=com_kw_39466_pu

New Load.load_p13ulv28516 conn=wye bus1=p13ulv28516.1.2.3 kV=0.48 Vminpu=0.8 Vmaxpu=1.2 model=1 kW=32.05121137816544 kvar=3.253277321397299 Phases=3 yearly=com_kw_22725_pu

New Load.load_p13ulv28517_1 conn=wye bus1=p13ulv28517.1 kV=0.12 Vminpu=0.8 Vmaxpu=1.2 model=1 kW=5.484916101426202 kvar=1.6302549722872932 Phases=1 yearly=com_kw_20964_pu

New Load.load_p13ulv28517_2 conn=wye bus1=p13ulv28517.2 kV=0.12 Vminpu=0.8 Vmaxpu=1.2 model=1 kW=5.484916101426202 kvar=1.6302549722872932 Phases=1 yearly=com_kw_20964_pu

New Load.load_p13ulv28518_1 conn=wye bus1=p13ulv28518.1 kV=0.12 Vminpu=0.8 Vmaxpu=1.2 model=1 kW=6.810264946703057 kvar=1.5608696201415955 Phases=1 yearly=com_kw_41337_pu

New Load.load_p13ulv28518_2 conn=wye bus1=p13ulv28518.2 kV=0.12 Vminpu=0.8 Vmaxpu=1.2 model=1 kW=6.810264946703057 kvar=1.5608696201415955 Phases=1 yearly=com_kw_41337_pu

New Load.load_p13ulv28519 conn=wye bus1=p13ulv28519.1.2.3 kV=0.48 Vminpu=0.8 Vmaxpu=1.2 model=1 kW=139.9457429495863 kvar=41.835422797925595 Phases=3 yearly=com_kw_29338_pu

New Load.load_p13ulv28520_1 conn=wye bus1=p13ulv28520.1 kV=0.12 Vminpu=0.8 Vmaxpu=1.2 model=1 kW=6.255790659786074 kvar=1.4714972061802982 Phases=1 yearly=com_kw_17858_pu

New Load.load_p13ulv28520_2 conn=wye bus1=p13ulv28520.2 kV=0.12 Vminpu=0.8 Vmaxpu=1.2 model=1 kW=6.255790659786074 kvar=1.4714972061802982 Phases=1 yearly=com_kw_17858_pu

New Load.load_p13ulv28521 conn=wye bus1=p13ulv28521.1.2.3 kV=0.48 Vminpu=0.8 Vmaxpu=1.2 model=1 kW=36.05832372914493 kvar=15.897182601800553 Phases=3 yearly=res_kw_14196_pu

New Load.load_p13ulv28522 conn=wye bus1=p13ulv28522.1.2.3 kV=0.48 Vminpu=0.8 Vmaxpu=1.2 model=1 kW=294.1018820903574 kvar=48.410938612664296 Phases=3 yearly=com_kw_31975_pu

New Load.load_p13ulv28523_1 conn=wye bus1=p13ulv28523.1 kV=0.12 Vminpu=0.8 Vmaxpu=1.2 model=1 kW=5.484916101426202 kvar=1.6302549722872932 Phases=1 yearly=com_kw_20964_pu

New Load.load_p13ulv28523_2 conn=wye bus1=p13ulv28523.2 kV=0.12 Vminpu=0.8 Vmaxpu=1.2 model=1 kW=5.484916101426202 kvar=1.6302549722872932 Phases=1 yearly=com_kw_20964_pu

New Load.load_p13ulv28524_1 conn=wye bus1=p13ulv28524.1 kV=0.12 Vminpu=0.8 Vmaxpu=1.2 model=1 kW=5.7965198206506185 kvar=1.3170178860793145 Phases=1 yearly=com_kw_31492_pu

New Load.load_p13ulv28524_2 conn=wye bus1=p13ulv28524.2 kV=0.12 Vminpu=0.8 Vmaxpu=1.2 model=1 kW=5.7965198206506185 kvar=1.3170178860793145 Phases=1 yearly=com_kw_31492_pu

New Load.load_p13ulv28525 conn=wye bus1=p13ulv28525.1.2.3 kV=0.48 Vminpu=0.8 Vmaxpu=1.2 model=1 kW=60.1537266887971 kvar=7.664999487274134 Phases=3 yearly=com_kw_17769_pu

New Load.load_p13ulv28526 conn=wye bus1=p13ulv28526.1.2.3 kV=0.48 Vminpu=0.8 Vmaxpu=1.2 model=1 kW=106.74885904839395 kvar=19.92428774098333 Phases=3 yearly=com_kw_29232_pu

New Load.load_p13ulv28527 conn=wye bus1=p13ulv28526.1.2.3 kV=0.48 Vminpu=0.8 Vmaxpu=1.2 model=1 kW=24.209120388106733 kvar=6.512500785618637 Phases=3 yearly=com_kw_19420_pu

New Load.load_p13ulv28528 conn=wye bus1=p13ulv28528.1.2.3 kV=0.48 Vminpu=0.8 Vmaxpu=1.2 model=1 kW=61.76660328661108 kvar=16.30553719474568 Phases=3 yearly=com_kw_17495_pu

New Load.load_p13ulv28529 conn=wye bus1=p13ulv28529.1.2.3 kV=0.48 Vminpu=0.8 Vmaxpu=1.2 model=1 kW=41.75258245334276 kvar=4.289343319841453 Phases=3 yearly=com_kw_19472_pu

New Load.load_p13ulv28530 conn=wye bus1=p13ulv28522.1.2.3 kV=0.48 Vminpu=0.8 Vmaxpu=1.2 model=1 kW=98.88761770534167 kvar=31.92196092787043 Phases=3 yearly=res_kw_5807_pu

New Load.load_p13ulv28531 conn=wye bus1=p13ulv28531.1.2.3 kV=0.48 Vminpu=0.8 Vmaxpu=1.2 model=1 kW=38.84819092833638 kvar=5.886272107565612 Phases=3 yearly=res_kw_15176_pu

New Load.load_p13ulv28532 conn=wye bus1=p13ulv28532.1.2.3 kV=0.48 Vminpu=0.8 Vmaxpu=1.2 model=1 kW=83.88032743811637 kvar=26.536296877345997 Phases=3 yearly=com_kw_21060_pu

New Load.load_p13ulv28533 conn=wye bus1=p13ulv28533.1.2.3 kV=0.48 Vminpu=0.8 Vmaxpu=1.2 model=1 kW=38.51536642055896 kvar=14.983092031207812 Phases=3 yearly=res_kw_6332_pu

New Load.load_p13ulv28534 conn=wye bus1=p13ulv28534.1.2.3 kV=0.48 Vminpu=0.8 Vmaxpu=1.2 model=1 kW=251.3184274831041 kvar=68.39169438157738 Phases=3 yearly=com_kw_1371_pu

New Load.load_p13ulv28535_1 conn=wye bus1=p13ulv28535.1 kV=0.12 Vminpu=0.8 Vmaxpu=1.2 model=1 kW=18.52211009124362 kvar=4.694234972274499 Phases=1 yearly=res_kw_7254_pu

New Load.load_p13ulv28535_2 conn=wye bus1=p13ulv28535.2 kV=0.12 Vminpu=0.8 Vmaxpu=1.2 model=1 kW=18.52211009124362 kvar=4.694234972274499 Phases=1 yearly=res_kw_7254_pu

New Load.load_p13ulv28537 conn=wye bus1=p13ulv28537.1.2.3 kV=0.48 Vminpu=0.8 Vmaxpu=1.2 model=1 kW=78.3189922846282 kvar=10.392040849293611 Phases=3 yearly=res_kw_1250_pu

New Load.load_p13ulv28539 conn=wye bus1=p13ulv28539.1.2.3 kV=0.48 Vminpu=0.8 Vmaxpu=1.2 model=1 kW=116.51050577867508 kvar=31.818194667455366 Phases=3 yearly=com_kw_39223_pu

New Load.load_p13ulv28540 conn=wye bus1=p13ulv28537.1.2.3 kV=0.48 Vminpu=0.8 Vmaxpu=1.2 model=1 kW=374.5555153043269 kvar=29.77124812264868 Phases=3 yearly=com_kw_34381_pu

New Load.load_p13ulv28541 conn=wye bus1=p13ulv28541.1.2.3 kV=0.48 Vminpu=0.8 Vmaxpu=1.2 model=1 kW=311.270188463594 kvar=87.73467475115629 Phases=3 yearly=com_kw_2308_pu

New Load.load_p13ulv28542 conn=wye bus1=p13ulv28542.1.2.3 kV=0.48 Vminpu=0.8 Vmaxpu=1.2 model=1 kW=123.6213161952188 kvar=16.895565851480747 Phases=3 yearly=res_kw_13563_pu

New Load.load_p13ulv28543 conn=wye bus1=p13ulv28543.1.2.3 kV=0.48 Vminpu=0.8 Vmaxpu=1.2 model=1 kW=216.03095279189594 kvar=65.89336877186663 Phases=3 yearly=com_kw_20936_pu

New Load.load_p13ulv28544 conn=wye bus1=p13ulv28544.1.2.3 kV=0.48 Vminpu=0.8 Vmaxpu=1.2 model=1 kW=310.9063206442201 kvar=85.07460574832835 Phases=3 yearly=com_kw_29676_pu

New Load.load_p13ulv28545_1 conn=wye bus1=p13ulv28545.1 kV=0.12 Vminpu=0.8 Vmaxpu=1.2 model=1 kW=5.7965198206506185 kvar=1.3170178860793145 Phases=1 yearly=com_kw_31492_pu

New Load.load_p13ulv28545_2 conn=wye bus1=p13ulv28545.2 kV=0.12 Vminpu=0.8 Vmaxpu=1.2 model=1 kW=5.7965198206506185 kvar=1.3170178860793145 Phases=1 yearly=com_kw_31492_pu

New Load.load_p13ulv28546 conn=wye bus1=p13ulv28546.1.2.3 kV=0.48 Vminpu=0.8 Vmaxpu=1.2 model=1 kW=48.34575438177472 kvar=12.95407542278397 Phases=3 yearly=com_kw_41540_pu

New Load.load_p13ulv28547 conn=wye bus1=p13ulv28547.1.2.3 kV=0.48 Vminpu=0.8 Vmaxpu=1.2 model=1 kW=311.270188463594 kvar=87.73467475115629 Phases=3 yearly=com_kw_2308_pu

New Load.load_p13ulv28548 conn=wye bus1=p13ulv28548.1.2.3 kV=0.48 Vminpu=0.8 Vmaxpu=1.2 model=1 kW=56.39671846194542 kvar=20.79129426464006 Phases=3 yearly=res_kw_531_pu

New Load.load_p13ulv28549 conn=wye bus1=p13ulv28549.1.2.3 kV=0.48 Vminpu=0.8 Vmaxpu=1.2 model=1 kW=51.449762773163634 kvar=3.4596412069486595 Phases=3 yearly=com_kw_41570_pu

New Load.load_p13ulv28550_1 conn=wye bus1=p13ulv28550.1 kV=0.12 Vminpu=0.8 Vmaxpu=1.2 model=1 kW=5.7965198206506185 kvar=1.3170178860793145 Phases=1 yearly=com_kw_31492_pu

New Load.load_p13ulv28550_2 conn=wye bus1=p13ulv28550.2 kV=0.12 Vminpu=0.8 Vmaxpu=1.2 model=1 kW=5.7965198206506185 kvar=1.3170178860793145 Phases=1 yearly=com_kw_31492_pu

New Load.load_p13ulv28551 conn=wye bus1=p13ulv28551.1.2.3 kV=0.48 Vminpu=0.8 Vmaxpu=1.2 model=1 kW=45.542905102781035 kvar=11.734933593933606 Phases=3 yearly=com_kw_39793_pu

New Load.load_p13ulv28552 conn=wye bus1=p13ulv28552.1.2.3 kV=0.48 Vminpu=0.8 Vmaxpu=1.2 model=1 kW=41.219260098041154 kvar=12.877911161638691 Phases=3 yearly=com_kw_29659_pu

New Load.load_p13ulv28553 conn=wye bus1=p13ulv28553.1.2.3 kV=0.48 Vminpu=0.8 Vmaxpu=1.2 model=1 kW=40.364343633540756 kvar=14.005270414764041 Phases=3 yearly=com_kw_34418_pu

New Load.load_p13ulv28554 conn=wye bus1=p13ulv28554.1.2.3 kV=0.48 Vminpu=0.8 Vmaxpu=1.2 model=1 kW=46.69426404505174 kvar=11.536785082814037 Phases=3 yearly=com_kw_8406_pu

New Load.load_p13ulv28555 conn=wye bus1=p13ulv28555.1.2.3 kV=0.48 Vminpu=0.8 Vmaxpu=1.2 model=1 kW=26.586264748769217 kvar=5.806808443793156 Phases=3 yearly=com_kw_1324_pu

New Load.load_p13ulv28556 conn=wye bus1=p13ulv28556.1.2.3 kV=0.48 Vminpu=0.8 Vmaxpu=1.2 model=1 kW=46.78181887674513 kvar=12.55942927662171 Phases=3 yearly=com_kw_39817_pu

New Load.load_p13ulv28557_1 conn=wye bus1=p13ulv28557.1 kV=0.12 Vminpu=0.8 Vmaxpu=1.2 model=1 kW=6.469353000269114 kvar=1.4711368490085026 Phases=1 yearly=com_kw_18187_pu

New Load.load_p13ulv28557_2 conn=wye bus1=p13ulv28557.2 kV=0.12 Vminpu=0.8 Vmaxpu=1.2 model=1 kW=6.469353000269114 kvar=1.4711368490085026 Phases=1 yearly=com_kw_18187_pu

New Load.load_p13ulv28558 conn=wye bus1=p13ulv28549.1.2.3 kV=0.48 Vminpu=0.8 Vmaxpu=1.2 model=1 kW=99.87160579473947 kvar=28.70903899010625 Phases=3 yearly=com_kw_17459_pu

New Load.load_p13ulv28559 conn=wye bus1=p13ulv28559.1.2.3 kV=0.48 Vminpu=0.8 Vmaxpu=1.2 model=1 kW=56.51838471579134 kvar=22.490001421427998 Phases=3 yearly=res_kw_12895_pu

New Load.load_p13ulv28560 conn=wye bus1=p13ulv28560.1.2.3 kV=0.48 Vminpu=0.8 Vmaxpu=1.2 model=1 kW=45.199648159460615 kvar=11.179387389656384 Phases=3 yearly=com_kw_19566_pu

New Load.load_p13ulv28561_1 conn=wye bus1=p13ulv28561.1 kV=0.12 Vminpu=0.8 Vmaxpu=1.2 model=1 kW=4.055766634676983 kvar=1.199977165248086 Phases=1 yearly=com_kw_19714_pu

New Load.load_p13ulv28561_2 conn=wye bus1=p13ulv28561.2 kV=0.12 Vminpu=0.8 Vmaxpu=1.2 model=1 kW=4.055766634676983 kvar=1.199977165248086 Phases=1 yearly=com_kw_19714_pu

New Load.load_p13ulv28562 conn=wye bus1=p13ulv28562.1.2.3 kV=0.48 Vminpu=0.8 Vmaxpu=1.2 model=1 kW=109.29419886284293 kvar=43.568303823446676 Phases=3 yearly=res_kw_12806_pu

New Load.load_p13ulv28563_1 conn=wye bus1=p13ulv28563.1 kV=0.12 Vminpu=0.8 Vmaxpu=1.2 model=1 kW=8.78647157145791 kvar=0.7544588461477941 Phases=1 yearly=com_kw_39258_pu

New Load.load_p13ulv28563_2 conn=wye bus1=p13ulv28563.2 kV=0.12 Vminpu=0.8 Vmaxpu=1.2 model=1 kW=8.78647157145791 kvar=0.7544588461477941 Phases=1 yearly=com_kw_39258_pu

New Load.load_p13ulv28564 conn=wye bus1=p13ulv28564.1.2.3 kV=0.48 Vminpu=0.8 Vmaxpu=1.2 model=1 kW=248.31818689263852 kvar=5.589141574079612 Phases=3 yearly=res_kw_9809_pu

New Load.load_p13ulv28565 conn=wye bus1=p13ulv28565.1.2.3 kV=0.48 Vminpu=0.8 Vmaxpu=1.2 model=1 kW=48.19025251061392 kvar=12.751308969386315 Phases=3 yearly=com_kw_19744_pu

New Load.load_p13ulv28566_1 conn=wye bus1=p13ulv28566.1 kV=0.12 Vminpu=0.8 Vmaxpu=1.2 model=1 kW=4.3110580247044945 kvar=1.2947733417084697 Phases=1 yearly=com_kw_39399_pu

New Load.load_p13ulv28566_2 conn=wye bus1=p13ulv28566.2 kV=0.12 Vminpu=0.8 Vmaxpu=1.2 model=1 kW=4.3110580247044945 kvar=1.2947733417084697 Phases=1 yearly=com_kw_39399_pu

New Load.load_p13ulv28567_1 conn=wye bus1=p13ulv28567.1 kV=0.12 Vminpu=0.8 Vmaxpu=1.2 model=1 kW=3.8153358234465076 kvar=0.39899171395948274 Phases=1 yearly=com_kw_28990_pu

New Load.load_p13ulv28567_2 conn=wye bus1=p13ulv28567.2 kV=0.12 Vminpu=0.8 Vmaxpu=1.2 model=1 kW=3.8153358234465076 kvar=0.39899171395948274 Phases=1 yearly=com_kw_28990_pu

New Load.load_p13ulv28568 conn=wye bus1=p13ulv28568.1.2.3 kV=0.48 Vminpu=0.8 Vmaxpu=1.2 model=1 kW=27.903727925670406 kvar=5.738337753566718 Phases=3 yearly=com_kw_1712_pu

New Load.load_p13ulv28569_1 conn=wye bus1=p13ulv28569.1 kV=0.12 Vminpu=0.8 Vmaxpu=1.2 model=1 kW=5.484916101426202 kvar=1.6302549722872932 Phases=1 yearly=com_kw_20964_pu

New Load.load_p13ulv28569_2 conn=wye bus1=p13ulv28569.2 kV=0.12 Vminpu=0.8 Vmaxpu=1.2 model=1 kW=5.484916101426202 kvar=1.6302549722872932 Phases=1 yearly=com_kw_20964_pu

New Load.load_p13ulv28570 conn=wye bus1=p13ulv28570.1.2.3 kV=0.48 Vminpu=0.8 Vmaxpu=1.2 model=1 kW=45.542905102781035 kvar=11.734933593933606 Phases=3 yearly=com_kw_39793_pu

New Load.load_p13ulv28571_1 conn=wye bus1=p13ulv28571.1 kV=0.12 Vminpu=0.8 Vmaxpu=1.2 model=1 kW=5.484916101426202 kvar=1.6302549722872932 Phases=1 yearly=com_kw_20964_pu

New Load.load_p13ulv28571_2 conn=wye bus1=p13ulv28571.2 kV=0.12 Vminpu=0.8 Vmaxpu=1.2 model=1 kW=5.484916101426202 kvar=1.6302549722872932 Phases=1 yearly=com_kw_20964_pu

New Load.load_p13ulv28572_1 conn=wye bus1=p13ulv28571.1 kV=0.12 Vminpu=0.8 Vmaxpu=1.2 model=1 kW=5.484916101426202 kvar=1.6302549722872932 Phases=1 yearly=com_kw_20964_pu

New Load.load_p13ulv28572_2 conn=wye bus1=p13ulv28571.2 kV=0.12 Vminpu=0.8 Vmaxpu=1.2 model=1 kW=5.484916101426202 kvar=1.6302549722872932 Phases=1 yearly=com_kw_20964_pu

New Load.load_p13ulv28573 conn=wye bus1=p13ulv28573.1.2.3 kV=0.48 Vminpu=0.8 Vmaxpu=1.2 model=1 kW=32.67587050918465 kvar=9.92119682672147 Phases=3 yearly=com_kw_2818_pu

New Load.load_p13ulv28574 conn=wye bus1=p13ulv28574.1.2.3 kV=0.48 Vminpu=0.8 Vmaxpu=1.2 model=1 kW=46.69426404505174 kvar=11.536785082814037 Phases=3 yearly=com_kw_8406_pu

New Load.load_p13ulv28575 conn=wye bus1=p13ulv28575.1.2.3 kV=0.48 Vminpu=0.8 Vmaxpu=1.2 model=1 kW=50.293141585478416 kvar=7.850820352224766 Phases=3 yearly=res_kw_11564_pu

New Load.load_p13ulv28576_1 conn=wye bus1=p13ulv28576.1 kV=0.12 Vminpu=0.8 Vmaxpu=1.2 model=1 kW=1.788612748424238 kvar=0.49287796288179314 Phases=1 yearly=res_kw_3329_pu

New Load.load_p13ulv28576_2 conn=wye bus1=p13ulv28576.2 kV=0.12 Vminpu=0.8 Vmaxpu=1.2 model=1 kW=1.788612748424238 kvar=0.49287796288179314 Phases=1 yearly=res_kw_3329_pu

New Load.load_p13ulv28586 conn=wye bus1=p13ulv28586.1.2.3 kV=0.48 Vminpu=0.8 Vmaxpu=1.2 model=1 kW=89.86697105435012 kvar=24.786703937371428 Phases=3 yearly=com_kw_39772_pu

New Load.load_p13ulv28587 conn=wye bus1=p13ulv28586.1.2.3 kV=0.48 Vminpu=0.8 Vmaxpu=1.2 model=1 kW=51.8561913223498 kvar=9.529616428256892 Phases=3 yearly=res_kw_1188_pu

New Load.load_p13ulv28588 conn=wye bus1=p13ulv28588.1.2.3 kV=0.48 Vminpu=0.8 Vmaxpu=1.2 model=1 kW=145.3025820729104 kvar=14.32525904010706 Phases=3 yearly=com_kw_35417_pu

New Load.load_p13ulv28589 conn=wye bus1=p13ulv28589.1.2.3 kV=0.48 Vminpu=0.8 Vmaxpu=1.2 model=1 kW=231.34368656094915 kvar=81.18354710190852 Phases=3 yearly=res_kw_1015_pu

New Load.load_p13ulv28597_1 conn=wye bus1=p13ulv28597.1 kV=0.12 Vminpu=0.8 Vmaxpu=1.2 model=1 kW=6.498297171515658 kvar=1.4851463714915674 Phases=1 yearly=com_kw_2014_pu

New Load.load_p13ulv28597_2 conn=wye bus1=p13ulv28597.2 kV=0.12 Vminpu=0.8 Vmaxpu=1.2 model=1 kW=6.498297171515658 kvar=1.4851463714915674 Phases=1 yearly=com_kw_2014_pu

New Load.load_p13ulv28953_1 conn=wye bus1=p13ulv28953.1 kV=0.12 Vminpu=0.8 Vmaxpu=1.2 model=1 kW=5.5661302619198825 kvar=1.8204555394405488 Phases=1 yearly=res_kw_11448_pu

New Load.load_p13ulv28953_2 conn=wye bus1=p13ulv28953.2 kV=0.12 Vminpu=0.8 Vmaxpu=1.2 model=1 kW=5.5661302619198825 kvar=1.8204555394405488 Phases=1 yearly=res_kw_11448_pu

New Load.load_p13ulv28954_1 conn=wye bus1=p13ulv28954.1 kV=0.12 Vminpu=0.8 Vmaxpu=1.2 model=1 kW=5.617600845157674 kvar=1.4588355555253876 Phases=1 yearly=res_kw_12319_pu

New Load.load_p13ulv28954_2 conn=wye bus1=p13ulv28954.2 kV=0.12 Vminpu=0.8 Vmaxpu=1.2 model=1 kW=5.617600845157674 kvar=1.4588355555253876 Phases=1 yearly=res_kw_12319_pu

New Load.load_p13ulv28955_1 conn=wye bus1=p13ulv28955.1 kV=0.12 Vminpu=0.8 Vmaxpu=1.2 model=1 kW=4.80943671944097 kvar=0.33228100650024006 Phases=1 yearly=res_kw_501_pu

New Load.load_p13ulv28955_2 conn=wye bus1=p13ulv28955.2 kV=0.12 Vminpu=0.8 Vmaxpu=1.2 model=1 kW=4.80943671944097 kvar=0.33228100650024006 Phases=1 yearly=res_kw_501_pu

New Load.load_p13ulv28961_1 conn=wye bus1=p13ulv28961.1 kV=0.12 Vminpu=0.8 Vmaxpu=1.2 model=1 kW=2.8901301560264585 kvar=1.2531765363382315 Phases=1 yearly=res_kw_1298_pu

New Load.load_p13ulv28961_2 conn=wye bus1=p13ulv28961.2 kV=0.12 Vminpu=0.8 Vmaxpu=1.2 model=1 kW=2.8901301560264585 kvar=1.2531765363382315 Phases=1 yearly=res_kw_1298_pu

New Load.load_p13ulv28962 conn=wye bus1=p13ulv28962.1.2.3 kV=0.48 Vminpu=0.8 Vmaxpu=1.2 model=1 kW=47.045425621302435 kvar=6.95031167247365 Phases=3 yearly=res_kw_6540_pu

New Load.load_p13ulv28963_1 conn=wye bus1=p13ulv28963.1 kV=0.12 Vminpu=0.8 Vmaxpu=1.2 model=1 kW=5.625700851973613 kvar=2.4441316293358732 Phases=1 yearly=res_kw_8868_pu

New Load.load_p13ulv28963_2 conn=wye bus1=p13ulv28963.2 kV=0.12 Vminpu=0.8 Vmaxpu=1.2 model=1 kW=5.625700851973613 kvar=2.4441316293358732 Phases=1 yearly=res_kw_8868_pu

New Load.load_p13ulv28964_1 conn=wye bus1=p13ulv28964.1 kV=0.12 Vminpu=0.8 Vmaxpu=1.2 model=1 kW=8.898343312387587 kvar=1.2494555564830871 Phases=1 yearly=res_kw_13906_pu

New Load.load_p13ulv28964_2 conn=wye bus1=p13ulv28964.2 kV=0.12 Vminpu=0.8 Vmaxpu=1.2 model=1 kW=8.898343312387587 kvar=1.2494555564830871 Phases=1 yearly=res_kw_13906_pu

New Load.load_p13ulv28965_1 conn=wye bus1=p13ulv28965.1 kV=0.12 Vminpu=0.8 Vmaxpu=1.2 model=1 kW=3.49550287357003 kvar=1.5407925206587947 Phases=1 yearly=res_kw_6895_pu

New Load.load_p13ulv28965_2 conn=wye bus1=p13ulv28965.2 kV=0.12 Vminpu=0.8 Vmaxpu=1.2 model=1 kW=3.49550287357003 kvar=1.5407925206587947 Phases=1 yearly=res_kw_6895_pu

New Load.load_p13ulv28966_1 conn=wye bus1=p13ulv28966.1 kV=0.12 Vminpu=0.8 Vmaxpu=1.2 model=1 kW=2.6661382622369385 kvar=1.0856618612049025 Phases=1 yearly=res_kw_7375_pu

New Load.load_p13ulv28966_2 conn=wye bus1=p13ulv28966.2 kV=0.12 Vminpu=0.8 Vmaxpu=1.2 model=1 kW=2.6661382622369385 kvar=1.0856618612049025 Phases=1 yearly=res_kw_7375_pu

New Load.load_p13ulv28967_1 conn=wye bus1=p13ulv28967.1 kV=0.12 Vminpu=0.8 Vmaxpu=1.2 model=1 kW=5.362179307885926 kvar=0.2715726031269967 Phases=1 yearly=res_kw_6510_pu

New Load.load_p13ulv28967_2 conn=wye bus1=p13ulv28967.2 kV=0.12 Vminpu=0.8 Vmaxpu=1.2 model=1 kW=5.362179307885926 kvar=0.2715726031269967 Phases=1 yearly=res_kw_6510_pu

New Load.load_p13ulv28968_1 conn=wye bus1=p13ulv28968.1 kV=0.12 Vminpu=0.8 Vmaxpu=1.2 model=1 kW=13.823338414749498 kvar=1.9040610399564137 Phases=1 yearly=res_kw_4929_pu

New Load.load_p13ulv28968_2 conn=wye bus1=p13ulv28968.2 kV=0.12 Vminpu=0.8 Vmaxpu=1.2 model=1 kW=13.823338414749498 kvar=1.9040610399564137 Phases=1 yearly=res_kw_4929_pu

New Load.load_p13ulv28969_1 conn=wye bus1=p13ulv28969.1 kV=0.12 Vminpu=0.8 Vmaxpu=1.2 model=1 kW=10.339123887458891 kvar=4.269154125871643 Phases=1 yearly=res_kw_1772_pu

New Load.load_p13ulv28969_2 conn=wye bus1=p13ulv28969.2 kV=0.12 Vminpu=0.8 Vmaxpu=1.2 model=1 kW=10.339123887458891 kvar=4.269154125871643 Phases=1 yearly=res_kw_1772_pu

New Load.load_p13ulv28970_1 conn=wye bus1=p13ulv28970.1 kV=0.12 Vminpu=0.8 Vmaxpu=1.2 model=1 kW=6.075048915749485 kvar=2.095101382372668 Phases=1 yearly=res_kw_3461_pu

New Load.load_p13ulv28970_2 conn=wye bus1=p13ulv28970.2 kV=0.12 Vminpu=0.8 Vmaxpu=1.2 model=1 kW=6.075048915749485 kvar=2.095101382372668 Phases=1 yearly=res_kw_3461_pu
