New Loadshape.SFO_37.8395_-122.3414_55_135 npts= 35040 interval=0.25 mult = (sngFile=../../profiles/SFO_37.8395_-122.3414_55_135.sng)

New Loadshape.SFO_37.7289_-122.3414_55_225 npts= 35040 interval=0.25 mult = (sngFile=../../profiles/SFO_37.7289_-122.3414_55_225.sng)

New Loadshape.SFO_37.8764_-122.3414_15_180 npts= 35040 interval=0.25 mult = (sngFile=../../profiles/SFO_37.8764_-122.3414_15_180.sng) 

New Loadshape.SFO_37.8764_-122.3414_25_180 npts= 35040 interval=0.25 mult = (sngFile=../../profiles/SFO_37.8764_-122.3414_25_180.sng) 

New Loadshape.SFO_37.8764_-122.3414_25_225 npts= 35040 interval=0.25 mult = (sngFile=../../profiles/SFO_37.8764_-122.3414_25_225.sng) 

New Loadshape.SFO_37.8764_-122.3414_35_135 npts= 35040 interval=0.25 mult = (sngFile=../../profiles/SFO_37.8764_-122.3414_35_135.sng) 

New Loadshape.SFO_37.8764_-122.3414_15_90 npts= 35040 interval=0.25 mult = (sngFile=../../profiles/SFO_37.8764_-122.3414_15_90.sng) 

New Loadshape.SFO_37.8764_-122.3414_35_180 npts= 35040 interval=0.25 mult = (sngFile=../../profiles/SFO_37.8764_-122.3414_35_180.sng) 

New Loadshape.SFO_37.8764_-122.3414_15_135 npts= 35040 interval=0.25 mult = (sngFile=../../profiles/SFO_37.8764_-122.3414_15_135.sng) 

New Loadshape.SFO_37.8764_-122.3414_25_270 npts= 35040 interval=0.25 mult = (sngFile=../../profiles/SFO_37.8764_-122.3414_25_270.sng) 

New Loadshape.SFO_37.8764_-122.3414_45_225 npts= 35040 interval=0.25 mult = (sngFile=../../profiles/SFO_37.8764_-122.3414_45_225.sng) 

New Loadshape.SFO_37.8764_-122.3414_45_270 npts= 35040 interval=0.25 mult = (sngFile=../../profiles/SFO_37.8764_-122.3414_45_270.sng) 

New Loadshape.SFO_37.8764_-122.3414_25_135 npts= 35040 interval=0.25 mult = (sngFile=../../profiles/SFO_37.8764_-122.3414_25_135.sng) 

New Loadshape.SFO_37.8764_-122.3414_15_225 npts= 35040 interval=0.25 mult = (sngFile=../../profiles/SFO_37.8764_-122.3414_15_225.sng) 

New Loadshape.SFO_37.8764_-122.3414_35_90 npts= 35040 interval=0.25 mult = (sngFile=../../profiles/SFO_37.8764_-122.3414_35_90.sng) 

New Loadshape.SFO_37.8764_-122.3414_35_225 npts= 35040 interval=0.25 mult = (sngFile=../../profiles/SFO_37.8764_-122.3414_35_225.sng) 

New Loadshape.SFO_37.8764_-122.3414_25_90 npts= 35040 interval=0.25 mult = (sngFile=../../profiles/SFO_37.8764_-122.3414_25_90.sng) 

New Loadshape.SFO_37.8764_-122.3414_35_270 npts= 35040 interval=0.25 mult = (sngFile=../../profiles/SFO_37.8764_-122.3414_35_270.sng) 

New Loadshape.SFO_37.8764_-122.3414_15_270 npts= 35040 interval=0.25 mult = (sngFile=../../profiles/SFO_37.8764_-122.3414_15_270.sng) 

New Loadshape.SFO_37.8764_-122.3414_45_135 npts= 35040 interval=0.25 mult = (sngFile=../../profiles/SFO_37.8764_-122.3414_45_135.sng) 

New Loadshape.SFO_37.8764_-122.3414_45_180 npts= 35040 interval=0.25 mult = (sngFile=../../profiles/SFO_37.8764_-122.3414_45_180.sng) 

New Loadshape.SFO_37.8764_-122.3414_45_90 npts= 35040 interval=0.25 mult = (sngFile=../../profiles/SFO_37.8764_-122.3414_45_90.sng) 

New Loadshape.SFO_37.8026_-122.3414_25_270 npts= 35040 interval=0.25 mult = (sngFile=../../profiles/SFO_37.8026_-122.3414_25_270.sng) 

New Loadshape.SFO_37.8026_-122.3414_15_225 npts= 35040 interval=0.25 mult = (sngFile=../../profiles/SFO_37.8026_-122.3414_15_225.sng) 

New Loadshape.SFO_37.8026_-122.3414_35_225 npts= 35040 interval=0.25 mult = (sngFile=../../profiles/SFO_37.8026_-122.3414_35_225.sng) 

New Loadshape.SFO_37.7658_-122.3414_45_180 npts= 35040 interval=0.25 mult = (sngFile=../../profiles/SFO_37.7658_-122.3414_45_180.sng) 

New Loadshape.SFO_37.8026_-122.3414_15_270 npts= 35040 interval=0.25 mult = (sngFile=../../profiles/SFO_37.8026_-122.3414_15_270.sng) 

New Loadshape.SFO_37.8026_-122.3414_15_180 npts= 35040 interval=0.25 mult = (sngFile=../../profiles/SFO_37.8026_-122.3414_15_180.sng) 

New Loadshape.SFO_37.8026_-122.3414_35_135 npts= 35040 interval=0.25 mult = (sngFile=../../profiles/SFO_37.8026_-122.3414_35_135.sng) 

New Loadshape.SFO_37.8026_-122.3414_35_270 npts= 35040 interval=0.25 mult = (sngFile=../../profiles/SFO_37.8026_-122.3414_35_270.sng) 

New Loadshape.SFO_37.8026_-122.3414_15_135 npts= 35040 interval=0.25 mult = (sngFile=../../profiles/SFO_37.8026_-122.3414_15_135.sng) 

New Loadshape.SFO_37.8026_-122.3414_25_90 npts= 35040 interval=0.25 mult = (sngFile=../../profiles/SFO_37.8026_-122.3414_25_90.sng) 

New Loadshape.SFO_37.8026_-122.3414_35_180 npts= 35040 interval=0.25 mult = (sngFile=../../profiles/SFO_37.8026_-122.3414_35_180.sng) 

New Loadshape.SFO_37.8026_-122.3414_25_225 npts= 35040 interval=0.25 mult = (sngFile=../../profiles/SFO_37.8026_-122.3414_25_225.sng) 

New Loadshape.SFO_37.8026_-122.3414_25_180 npts= 35040 interval=0.25 mult = (sngFile=../../profiles/SFO_37.8026_-122.3414_25_180.sng) 

New Loadshape.SFO_37.8026_-122.3414_25_135 npts= 35040 interval=0.25 mult = (sngFile=../../profiles/SFO_37.8026_-122.3414_25_135.sng) 

New Loadshape.SFO_37.8026_-122.3414_45_180 npts= 35040 interval=0.25 mult = (sngFile=../../profiles/SFO_37.8026_-122.3414_45_180.sng) 

New Loadshape.SFO_37.8026_-122.3414_35_90 npts= 35040 interval=0.25 mult = (sngFile=../../profiles/SFO_37.8026_-122.3414_35_90.sng) 

New Loadshape.SFO_37.8026_-122.3414_15_90 npts= 35040 interval=0.25 mult = (sngFile=../../profiles/SFO_37.8026_-122.3414_15_90.sng) 

New Loadshape.SFO_37.7658_-122.3414_25_180 npts= 35040 interval=0.25 mult = (sngFile=../../profiles/SFO_37.7658_-122.3414_25_180.sng) 

New Loadshape.SFO_37.8026_-122.3414_45_135 npts= 35040 interval=0.25 mult = (sngFile=../../profiles/SFO_37.8026_-122.3414_45_135.sng) 

New Loadshape.SFO_37.8026_-122.3414_45_270 npts= 35040 interval=0.25 mult = (sngFile=../../profiles/SFO_37.8026_-122.3414_45_270.sng) 

New Loadshape.SFO_37.7658_-122.3414_25_270 npts= 35040 interval=0.25 mult = (sngFile=../../profiles/SFO_37.7658_-122.3414_25_270.sng) 

New Loadshape.SFO_37.8026_-122.3414_45_225 npts= 35040 interval=0.25 mult = (sngFile=../../profiles/SFO_37.8026_-122.3414_45_225.sng) 

New Loadshape.SFO_37.7658_-122.3414_15_180 npts= 35040 interval=0.25 mult = (sngFile=../../profiles/SFO_37.7658_-122.3414_15_180.sng) 

New Loadshape.SFO_37.8026_-122.3414_45_90 npts= 35040 interval=0.25 mult = (sngFile=../../profiles/SFO_37.8026_-122.3414_45_90.sng) 

New Loadshape.SFO_37.8395_-122.3414_15_180 npts= 35040 interval=0.25 mult = (sngFile=../../profiles/SFO_37.8395_-122.3414_15_180.sng) 

New Loadshape.SFO_37.8395_-122.3414_15_225 npts= 35040 interval=0.25 mult = (sngFile=../../profiles/SFO_37.8395_-122.3414_15_225.sng) 

New Loadshape.SFO_37.8395_-122.3414_35_225 npts= 35040 interval=0.25 mult = (sngFile=../../profiles/SFO_37.8395_-122.3414_35_225.sng) 

New Loadshape.SFO_37.8395_-122.3414_35_180 npts= 35040 interval=0.25 mult = (sngFile=../../profiles/SFO_37.8395_-122.3414_35_180.sng) 

New Loadshape.SFO_37.8395_-122.3414_35_270 npts= 35040 interval=0.25 mult = (sngFile=../../profiles/SFO_37.8395_-122.3414_35_270.sng) 

New Loadshape.SFO_37.8395_-122.3414_25_270 npts= 35040 interval=0.25 mult = (sngFile=../../profiles/SFO_37.8395_-122.3414_25_270.sng) 

New Loadshape.SFO_37.8395_-122.3414_15_135 npts= 35040 interval=0.25 mult = (sngFile=../../profiles/SFO_37.8395_-122.3414_15_135.sng) 

New Loadshape.SFO_37.8395_-122.3414_35_90 npts= 35040 interval=0.25 mult = (sngFile=../../profiles/SFO_37.8395_-122.3414_35_90.sng) 

New Loadshape.SFO_37.8395_-122.3414_25_90 npts= 35040 interval=0.25 mult = (sngFile=../../profiles/SFO_37.8395_-122.3414_25_90.sng) 

New Loadshape.SFO_37.8395_-122.3414_15_270 npts= 35040 interval=0.25 mult = (sngFile=../../profiles/SFO_37.8395_-122.3414_15_270.sng) 

New Loadshape.SFO_37.8395_-122.3414_35_135 npts= 35040 interval=0.25 mult = (sngFile=../../profiles/SFO_37.8395_-122.3414_35_135.sng) 

New Loadshape.SFO_37.8395_-122.3414_45_225 npts= 35040 interval=0.25 mult = (sngFile=../../profiles/SFO_37.8395_-122.3414_45_225.sng) 

New Loadshape.SFO_37.8395_-122.3414_15_90 npts= 35040 interval=0.25 mult = (sngFile=../../profiles/SFO_37.8395_-122.3414_15_90.sng) 

New Loadshape.SFO_37.8395_-122.3414_25_135 npts= 35040 interval=0.25 mult = (sngFile=../../profiles/SFO_37.8395_-122.3414_25_135.sng) 

New Loadshape.SFO_37.8395_-122.3414_25_225 npts= 35040 interval=0.25 mult = (sngFile=../../profiles/SFO_37.8395_-122.3414_25_225.sng) 

New Loadshape.SFO_37.8395_-122.3414_25_180 npts= 35040 interval=0.25 mult = (sngFile=../../profiles/SFO_37.8395_-122.3414_25_180.sng) 

New Loadshape.SFO_37.8395_-122.3414_45_270 npts= 35040 interval=0.25 mult = (sngFile=../../profiles/SFO_37.8395_-122.3414_45_270.sng) 

New Loadshape.SFO_37.8395_-122.3414_45_135 npts= 35040 interval=0.25 mult = (sngFile=../../profiles/SFO_37.8395_-122.3414_45_135.sng) 

New Loadshape.SFO_37.8395_-122.3414_45_180 npts= 35040 interval=0.25 mult = (sngFile=../../profiles/SFO_37.8395_-122.3414_45_180.sng) 

New Loadshape.SFO_37.8395_-122.3414_45_90 npts= 35040 interval=0.25 mult = (sngFile=../../profiles/SFO_37.8395_-122.3414_45_90.sng) 

New Loadshape.SFO_37.8395_-122.3414_55_180 npts= 35040 interval=0.25 mult = (sngFile=../../profiles/SFO_37.8395_-122.3414_55_180.sng) 

New Loadshape.SFO_37.8395_-122.3414_55_225 npts= 35040 interval=0.25 mult = (sngFile=../../profiles/SFO_37.8395_-122.3414_55_225.sng) 

New Loadshape.SFO_37.8026_-122.3414_55_180 npts= 35040 interval=0.25 mult = (sngFile=../../profiles/SFO_37.8026_-122.3414_55_180.sng) 

New Loadshape.SFO_37.8026_-122.3414_55_225 npts= 35040 interval=0.25 mult = (sngFile=../../profiles/SFO_37.8026_-122.3414_55_225.sng) 

New Loadshape.SFO_37.7658_-122.3414_35_135 npts= 35040 interval=0.25 mult = (sngFile=../../profiles/SFO_37.7658_-122.3414_35_135.sng) 

New Loadshape.SFO_37.7658_-122.3414_25_135 npts= 35040 interval=0.25 mult = (sngFile=../../profiles/SFO_37.7658_-122.3414_25_135.sng) 

New Loadshape.SFO_37.7658_-122.3414_45_225 npts= 35040 interval=0.25 mult = (sngFile=../../profiles/SFO_37.7658_-122.3414_45_225.sng) 

New Loadshape.SFO_37.7658_-122.3414_35_225 npts= 35040 interval=0.25 mult = (sngFile=../../profiles/SFO_37.7658_-122.3414_35_225.sng) 

New Loadshape.SFO_37.7658_-122.3414_25_90 npts= 35040 interval=0.25 mult = (sngFile=../../profiles/SFO_37.7658_-122.3414_25_90.sng) 

New Loadshape.SFO_37.7658_-122.3414_15_135 npts= 35040 interval=0.25 mult = (sngFile=../../profiles/SFO_37.7658_-122.3414_15_135.sng) 

New Loadshape.SFO_37.7658_-122.3414_35_180 npts= 35040 interval=0.25 mult = (sngFile=../../profiles/SFO_37.7658_-122.3414_35_180.sng) 

New Loadshape.SFO_37.7658_-122.3414_35_270 npts= 35040 interval=0.25 mult = (sngFile=../../profiles/SFO_37.7658_-122.3414_35_270.sng) 

New Loadshape.SFO_37.7658_-122.3414_15_225 npts= 35040 interval=0.25 mult = (sngFile=../../profiles/SFO_37.7658_-122.3414_15_225.sng) 

New Loadshape.SFO_37.7658_-122.3414_15_90 npts= 35040 interval=0.25 mult = (sngFile=../../profiles/SFO_37.7658_-122.3414_15_90.sng) 

New Loadshape.SFO_37.7658_-122.3414_35_90 npts= 35040 interval=0.25 mult = (sngFile=../../profiles/SFO_37.7658_-122.3414_35_90.sng) 

New Loadshape.SFO_37.7658_-122.3414_15_270 npts= 35040 interval=0.25 mult = (sngFile=../../profiles/SFO_37.7658_-122.3414_15_270.sng) 

New Loadshape.SFO_37.7658_-122.3414_25_225 npts= 35040 interval=0.25 mult = (sngFile=../../profiles/SFO_37.7658_-122.3414_25_225.sng) 

New Loadshape.SFO_37.7658_-122.3414_45_135 npts= 35040 interval=0.25 mult = (sngFile=../../profiles/SFO_37.7658_-122.3414_45_135.sng) 

New Loadshape.SFO_37.7658_-122.3414_45_90 npts= 35040 interval=0.25 mult = (sngFile=../../profiles/SFO_37.7658_-122.3414_45_90.sng) 

New Loadshape.SFO_37.7658_-122.3414_45_270 npts= 35040 interval=0.25 mult = (sngFile=../../profiles/SFO_37.7658_-122.3414_45_270.sng) 

New Loadshape.SFO_37.7289_-122.3414_35_90 npts= 35040 interval=0.25 mult = (sngFile=../../profiles/SFO_37.7289_-122.3414_35_90.sng) 

New Loadshape.SFO_37.7289_-122.3414_15_270 npts= 35040 interval=0.25 mult = (sngFile=../../profiles/SFO_37.7289_-122.3414_15_270.sng) 

New Loadshape.SFO_37.7289_-122.3414_25_180 npts= 35040 interval=0.25 mult = (sngFile=../../profiles/SFO_37.7289_-122.3414_25_180.sng) 

New Loadshape.SFO_37.7289_-122.3414_15_180 npts= 35040 interval=0.25 mult = (sngFile=../../profiles/SFO_37.7289_-122.3414_15_180.sng) 

New Loadshape.SFO_37.7289_-122.3414_15_90 npts= 35040 interval=0.25 mult = (sngFile=../../profiles/SFO_37.7289_-122.3414_15_90.sng) 

New Loadshape.SFO_37.7289_-122.3414_25_90 npts= 35040 interval=0.25 mult = (sngFile=../../profiles/SFO_37.7289_-122.3414_25_90.sng) 

New Loadshape.SFO_37.7289_-122.3414_35_225 npts= 35040 interval=0.25 mult = (sngFile=../../profiles/SFO_37.7289_-122.3414_35_225.sng) 

New Loadshape.SFO_37.7289_-122.3414_25_135 npts= 35040 interval=0.25 mult = (sngFile=../../profiles/SFO_37.7289_-122.3414_25_135.sng) 

New Loadshape.SFO_37.7289_-122.3414_35_180 npts= 35040 interval=0.25 mult = (sngFile=../../profiles/SFO_37.7289_-122.3414_35_180.sng) 

New Loadshape.SFO_37.7289_-122.3414_25_270 npts= 35040 interval=0.25 mult = (sngFile=../../profiles/SFO_37.7289_-122.3414_25_270.sng) 

New Loadshape.SFO_37.7289_-122.3414_15_225 npts= 35040 interval=0.25 mult = (sngFile=../../profiles/SFO_37.7289_-122.3414_15_225.sng) 

New Loadshape.SFO_37.7289_-122.3414_25_225 npts= 35040 interval=0.25 mult = (sngFile=../../profiles/SFO_37.7289_-122.3414_25_225.sng) 

New Loadshape.SFO_37.7289_-122.3414_35_270 npts= 35040 interval=0.25 mult = (sngFile=../../profiles/SFO_37.7289_-122.3414_35_270.sng) 

New Loadshape.SFO_37.7289_-122.3414_45_270 npts= 35040 interval=0.25 mult = (sngFile=../../profiles/SFO_37.7289_-122.3414_45_270.sng) 

New Loadshape.SFO_37.7289_-122.3414_45_135 npts= 35040 interval=0.25 mult = (sngFile=../../profiles/SFO_37.7289_-122.3414_45_135.sng) 

New Loadshape.SFO_37.7289_-122.3414_35_135 npts= 35040 interval=0.25 mult = (sngFile=../../profiles/SFO_37.7289_-122.3414_35_135.sng) 

New Loadshape.SFO_37.7289_-122.3414_15_135 npts= 35040 interval=0.25 mult = (sngFile=../../profiles/SFO_37.7289_-122.3414_15_135.sng) 

New Loadshape.SFO_37.7289_-122.3414_45_180 npts= 35040 interval=0.25 mult = (sngFile=../../profiles/SFO_37.7289_-122.3414_45_180.sng) 

New Loadshape.SFO_37.7289_-122.3414_45_225 npts= 35040 interval=0.25 mult = (sngFile=../../profiles/SFO_37.7289_-122.3414_45_225.sng) 

New Loadshape.SFO_37.7289_-122.3414_45_90 npts= 35040 interval=0.25 mult = (sngFile=../../profiles/SFO_37.7289_-122.3414_45_90.sng) 

New Loadshape.SFO_37.7289_-122.3414_55_135 npts= 35040 interval=0.25 mult = (sngFile=../../profiles/SFO_37.7289_-122.3414_55_135.sng) 

New Loadshape.SFO_37.8764_-122.3414_55_180 npts= 35040 interval=0.25 mult = (sngFile=../../profiles/SFO_37.8764_-122.3414_55_180.sng) 

New Loadshape.SFO_37.8026_-122.3414_55_135 npts= 35040 interval=0.25 mult = (sngFile=../../profiles/SFO_37.8026_-122.3414_55_135.sng) 

New Loadshape.SFO_37.7658_-122.3414_55_180 npts= 35040 interval=0.25 mult = (sngFile=../../profiles/SFO_37.7658_-122.3414_55_180.sng) 

New Loadshape.SFO_37.7658_-122.3414_55_225 npts= 35040 interval=0.25 mult = (sngFile=../../profiles/SFO_37.7658_-122.3414_55_225.sng) 

New Loadshape.SFO_37.7658_-122.3414_55_135 npts= 35040 interval=0.25 mult = (sngFile=../../profiles/SFO_37.7658_-122.3414_55_135.sng) 

New Loadshape.SFO_37.8764_-122.3414_55_135 npts= 35040 interval=0.25 mult = (sngFile=../../profiles/SFO_37.8764_-122.3414_55_135.sng) 

New Loadshape.SFO_37.8764_-122.3414_55_225 npts= 35040 interval=0.25 mult = (sngFile=../../profiles/SFO_37.8764_-122.3414_55_225.sng) 

New Loadshape.SFO_37.8764_-122.3414_55_270 npts= 35040 interval=0.25 mult = (sngFile=../../profiles/SFO_37.8764_-122.3414_55_270.sng) 

New Loadshape.SFO_37.7289_-122.3414_55_180 npts= 35040 interval=0.25 mult = (sngFile=../../profiles/SFO_37.7289_-122.3414_55_180.sng) 

New Loadshape.SFO_37.7289_-122.3414_55_270 npts= 35040 interval=0.25 mult = (sngFile=../../profiles/SFO_37.7289_-122.3414_55_270.sng) 

New Loadshape.SFO_37.8026_-122.3414_55_270 npts= 35040 interval=0.25 mult = (sngFile=../../profiles/SFO_37.8026_-122.3414_55_270.sng) 

New Loadshape.res_kw_5369_pu npts= 35040 interval=0.25 mult = (sngFile=../../profiles/res_kw_5369_pu.sng)  qmult = (sngFile=../../profiles/res_kvar_5369_pu.sng)

New Loadshape.res_kw_960_pu npts= 35040 interval=0.25 mult = (sngFile=../../profiles/res_kw_960_pu.sng)  qmult = (sngFile=../../profiles/res_kvar_960_pu.sng)

New Loadshape.res_kw_2365_pu npts= 35040 interval=0.25 mult = (sngFile=../../profiles/res_kw_2365_pu.sng)  qmult = (sngFile=../../profiles/res_kvar_2365_pu.sng)

New Loadshape.res_kw_3113_pu npts= 35040 interval=0.25 mult = (sngFile=../../profiles/res_kw_3113_pu.sng)  qmult = (sngFile=../../profiles/res_kvar_3113_pu.sng)

New Loadshape.res_kw_14206_pu npts= 35040 interval=0.25 mult = (sngFile=../../profiles/res_kw_14206_pu.sng)  qmult = (sngFile=../../profiles/res_kvar_14206_pu.sng)

New Loadshape.res_kw_1160_pu npts= 35040 interval=0.25 mult = (sngFile=../../profiles/res_kw_1160_pu.sng)  qmult = (sngFile=../../profiles/res_kvar_1160_pu.sng)

New Loadshape.res_kw_2803_pu npts= 35040 interval=0.25 mult = (sngFile=../../profiles/res_kw_2803_pu.sng)  qmult = (sngFile=../../profiles/res_kvar_2803_pu.sng)

New Loadshape.res_kw_1769_pu npts= 35040 interval=0.25 mult = (sngFile=../../profiles/res_kw_1769_pu.sng)  qmult = (sngFile=../../profiles/res_kvar_1769_pu.sng)

New Loadshape.res_kw_48_pu npts= 35040 interval=0.25 mult = (sngFile=../../profiles/res_kw_48_pu.sng)  qmult = (sngFile=../../profiles/res_kvar_48_pu.sng)

New Loadshape.res_kw_638_pu npts= 35040 interval=0.25 mult = (sngFile=../../profiles/res_kw_638_pu.sng)  qmult = (sngFile=../../profiles/res_kvar_638_pu.sng)

New Loadshape.res_kw_643_pu npts= 35040 interval=0.25 mult = (sngFile=../../profiles/res_kw_643_pu.sng)  qmult = (sngFile=../../profiles/res_kvar_643_pu.sng)

New Loadshape.res_kw_5640_pu npts= 35040 interval=0.25 mult = (sngFile=../../profiles/res_kw_5640_pu.sng)  qmult = (sngFile=../../profiles/res_kvar_5640_pu.sng)

New Loadshape.res_kw_7851_pu npts= 35040 interval=0.25 mult = (sngFile=../../profiles/res_kw_7851_pu.sng)  qmult = (sngFile=../../profiles/res_kvar_7851_pu.sng)

New Loadshape.res_kw_11732_pu npts= 35040 interval=0.25 mult = (sngFile=../../profiles/res_kw_11732_pu.sng)  qmult = (sngFile=../../profiles/res_kvar_11732_pu.sng)

New Loadshape.res_kw_7029_pu npts= 35040 interval=0.25 mult = (sngFile=../../profiles/res_kw_7029_pu.sng)  qmult = (sngFile=../../profiles/res_kvar_7029_pu.sng)

New Loadshape.res_kw_14989_pu npts= 35040 interval=0.25 mult = (sngFile=../../profiles/res_kw_14989_pu.sng)  qmult = (sngFile=../../profiles/res_kvar_14989_pu.sng)

New Loadshape.res_kw_7181_pu npts= 35040 interval=0.25 mult = (sngFile=../../profiles/res_kw_7181_pu.sng)  qmult = (sngFile=../../profiles/res_kvar_7181_pu.sng)

New Loadshape.res_kw_11503_pu npts= 35040 interval=0.25 mult = (sngFile=../../profiles/res_kw_11503_pu.sng)  qmult = (sngFile=../../profiles/res_kvar_11503_pu.sng)

New Loadshape.res_kw_8466_pu npts= 35040 interval=0.25 mult = (sngFile=../../profiles/res_kw_8466_pu.sng)  qmult = (sngFile=../../profiles/res_kvar_8466_pu.sng)

New Loadshape.res_kw_11106_pu npts= 35040 interval=0.25 mult = (sngFile=../../profiles/res_kw_11106_pu.sng)  qmult = (sngFile=../../profiles/res_kvar_11106_pu.sng)

New Loadshape.res_kw_8098_pu npts= 35040 interval=0.25 mult = (sngFile=../../profiles/res_kw_8098_pu.sng)  qmult = (sngFile=../../profiles/res_kvar_8098_pu.sng)

New Loadshape.res_kw_12138_pu npts= 35040 interval=0.25 mult = (sngFile=../../profiles/res_kw_12138_pu.sng)  qmult = (sngFile=../../profiles/res_kvar_12138_pu.sng)

New Loadshape.res_kw_6093_pu npts= 35040 interval=0.25 mult = (sngFile=../../profiles/res_kw_6093_pu.sng)  qmult = (sngFile=../../profiles/res_kvar_6093_pu.sng)

New Loadshape.res_kw_6308_pu npts= 35040 interval=0.25 mult = (sngFile=../../profiles/res_kw_6308_pu.sng)  qmult = (sngFile=../../profiles/res_kvar_6308_pu.sng)

New Loadshape.res_kw_14182_pu npts= 35040 interval=0.25 mult = (sngFile=../../profiles/res_kw_14182_pu.sng)  qmult = (sngFile=../../profiles/res_kvar_14182_pu.sng)

New Loadshape.res_kw_442_pu npts= 35040 interval=0.25 mult = (sngFile=../../profiles/res_kw_442_pu.sng)  qmult = (sngFile=../../profiles/res_kvar_442_pu.sng)

New Loadshape.res_kw_12445_pu npts= 35040 interval=0.25 mult = (sngFile=../../profiles/res_kw_12445_pu.sng)  qmult = (sngFile=../../profiles/res_kvar_12445_pu.sng)

New Loadshape.res_kw_2021_pu npts= 35040 interval=0.25 mult = (sngFile=../../profiles/res_kw_2021_pu.sng)  qmult = (sngFile=../../profiles/res_kvar_2021_pu.sng)

New Loadshape.res_kw_6349_pu npts= 35040 interval=0.25 mult = (sngFile=../../profiles/res_kw_6349_pu.sng)  qmult = (sngFile=../../profiles/res_kvar_6349_pu.sng)

New Loadshape.res_kw_10304_pu npts= 35040 interval=0.25 mult = (sngFile=../../profiles/res_kw_10304_pu.sng)  qmult = (sngFile=../../profiles/res_kvar_10304_pu.sng)

New Loadshape.res_kw_4670_pu npts= 35040 interval=0.25 mult = (sngFile=../../profiles/res_kw_4670_pu.sng)  qmult = (sngFile=../../profiles/res_kvar_4670_pu.sng)

New Loadshape.res_kw_1957_pu npts= 35040 interval=0.25 mult = (sngFile=../../profiles/res_kw_1957_pu.sng)  qmult = (sngFile=../../profiles/res_kvar_1957_pu.sng)

New Loadshape.res_kw_4586_pu npts= 35040 interval=0.25 mult = (sngFile=../../profiles/res_kw_4586_pu.sng)  qmult = (sngFile=../../profiles/res_kvar_4586_pu.sng)

New Loadshape.res_kw_5417_pu npts= 35040 interval=0.25 mult = (sngFile=../../profiles/res_kw_5417_pu.sng)  qmult = (sngFile=../../profiles/res_kvar_5417_pu.sng)

New Loadshape.res_kw_9113_pu npts= 35040 interval=0.25 mult = (sngFile=../../profiles/res_kw_9113_pu.sng)  qmult = (sngFile=../../profiles/res_kvar_9113_pu.sng)

New Loadshape.res_kw_13532_pu npts= 35040 interval=0.25 mult = (sngFile=../../profiles/res_kw_13532_pu.sng)  qmult = (sngFile=../../profiles/res_kvar_13532_pu.sng)

New Loadshape.res_kw_13338_pu npts= 35040 interval=0.25 mult = (sngFile=../../profiles/res_kw_13338_pu.sng)  qmult = (sngFile=../../profiles/res_kvar_13338_pu.sng)

New Loadshape.res_kw_3376_pu npts= 35040 interval=0.25 mult = (sngFile=../../profiles/res_kw_3376_pu.sng)  qmult = (sngFile=../../profiles/res_kvar_3376_pu.sng)

New Loadshape.res_kw_15085_pu npts= 35040 interval=0.25 mult = (sngFile=../../profiles/res_kw_15085_pu.sng)  qmult = (sngFile=../../profiles/res_kvar_15085_pu.sng)

New Loadshape.res_kw_557_pu npts= 35040 interval=0.25 mult = (sngFile=../../profiles/res_kw_557_pu.sng)  qmult = (sngFile=../../profiles/res_kvar_557_pu.sng)

New Loadshape.res_kw_11510_pu npts= 35040 interval=0.25 mult = (sngFile=../../profiles/res_kw_11510_pu.sng)  qmult = (sngFile=../../profiles/res_kvar_11510_pu.sng)

New Loadshape.res_kw_6802_pu npts= 35040 interval=0.25 mult = (sngFile=../../profiles/res_kw_6802_pu.sng)  qmult = (sngFile=../../profiles/res_kvar_6802_pu.sng)

New Loadshape.res_kw_2603_pu npts= 35040 interval=0.25 mult = (sngFile=../../profiles/res_kw_2603_pu.sng)  qmult = (sngFile=../../profiles/res_kvar_2603_pu.sng)

New Loadshape.res_kw_733_pu npts= 35040 interval=0.25 mult = (sngFile=../../profiles/res_kw_733_pu.sng)  qmult = (sngFile=../../profiles/res_kvar_733_pu.sng)

New Loadshape.res_kw_3058_pu npts= 35040 interval=0.25 mult = (sngFile=../../profiles/res_kw_3058_pu.sng)  qmult = (sngFile=../../profiles/res_kvar_3058_pu.sng)

New Loadshape.res_kw_3262_pu npts= 35040 interval=0.25 mult = (sngFile=../../profiles/res_kw_3262_pu.sng)  qmult = (sngFile=../../profiles/res_kvar_3262_pu.sng)

New Loadshape.res_kw_6262_pu npts= 35040 interval=0.25 mult = (sngFile=../../profiles/res_kw_6262_pu.sng)  qmult = (sngFile=../../profiles/res_kvar_6262_pu.sng)

New Loadshape.res_kw_119_pu npts= 35040 interval=0.25 mult = (sngFile=../../profiles/res_kw_119_pu.sng)  qmult = (sngFile=../../profiles/res_kvar_119_pu.sng)

New Loadshape.res_kw_2196_pu npts= 35040 interval=0.25 mult = (sngFile=../../profiles/res_kw_2196_pu.sng)  qmult = (sngFile=../../profiles/res_kvar_2196_pu.sng)

New Loadshape.res_kw_4856_pu npts= 35040 interval=0.25 mult = (sngFile=../../profiles/res_kw_4856_pu.sng)  qmult = (sngFile=../../profiles/res_kvar_4856_pu.sng)

New Loadshape.res_kw_6240_pu npts= 35040 interval=0.25 mult = (sngFile=../../profiles/res_kw_6240_pu.sng)  qmult = (sngFile=../../profiles/res_kvar_6240_pu.sng)

New Loadshape.res_kw_12981_pu npts= 35040 interval=0.25 mult = (sngFile=../../profiles/res_kw_12981_pu.sng)  qmult = (sngFile=../../profiles/res_kvar_12981_pu.sng)

New Loadshape.res_kw_1949_pu npts= 35040 interval=0.25 mult = (sngFile=../../profiles/res_kw_1949_pu.sng)  qmult = (sngFile=../../profiles/res_kvar_1949_pu.sng)

New Loadshape.res_kw_2345_pu npts= 35040 interval=0.25 mult = (sngFile=../../profiles/res_kw_2345_pu.sng)  qmult = (sngFile=../../profiles/res_kvar_2345_pu.sng)

New Loadshape.res_kw_14411_pu npts= 35040 interval=0.25 mult = (sngFile=../../profiles/res_kw_14411_pu.sng)  qmult = (sngFile=../../profiles/res_kvar_14411_pu.sng)

New Loadshape.res_kw_6607_pu npts= 35040 interval=0.25 mult = (sngFile=../../profiles/res_kw_6607_pu.sng)  qmult = (sngFile=../../profiles/res_kvar_6607_pu.sng)

New Loadshape.res_kw_13008_pu npts= 35040 interval=0.25 mult = (sngFile=../../profiles/res_kw_13008_pu.sng)  qmult = (sngFile=../../profiles/res_kvar_13008_pu.sng)

New Loadshape.res_kw_13258_pu npts= 35040 interval=0.25 mult = (sngFile=../../profiles/res_kw_13258_pu.sng)  qmult = (sngFile=../../profiles/res_kvar_13258_pu.sng)

New Loadshape.res_kw_11563_pu npts= 35040 interval=0.25 mult = (sngFile=../../profiles/res_kw_11563_pu.sng)  qmult = (sngFile=../../profiles/res_kvar_11563_pu.sng)

New Loadshape.res_kw_2841_pu npts= 35040 interval=0.25 mult = (sngFile=../../profiles/res_kw_2841_pu.sng)  qmult = (sngFile=../../profiles/res_kvar_2841_pu.sng)

New Loadshape.res_kw_6130_pu npts= 35040 interval=0.25 mult = (sngFile=../../profiles/res_kw_6130_pu.sng)  qmult = (sngFile=../../profiles/res_kvar_6130_pu.sng)

New Loadshape.res_kw_6530_pu npts= 35040 interval=0.25 mult = (sngFile=../../profiles/res_kw_6530_pu.sng)  qmult = (sngFile=../../profiles/res_kvar_6530_pu.sng)

New Loadshape.res_kw_14394_pu npts= 35040 interval=0.25 mult = (sngFile=../../profiles/res_kw_14394_pu.sng)  qmult = (sngFile=../../profiles/res_kvar_14394_pu.sng)

New Loadshape.res_kw_2379_pu npts= 35040 interval=0.25 mult = (sngFile=../../profiles/res_kw_2379_pu.sng)  qmult = (sngFile=../../profiles/res_kvar_2379_pu.sng)

New Loadshape.res_kw_7055_pu npts= 35040 interval=0.25 mult = (sngFile=../../profiles/res_kw_7055_pu.sng)  qmult = (sngFile=../../profiles/res_kvar_7055_pu.sng)

New Loadshape.res_kw_11879_pu npts= 35040 interval=0.25 mult = (sngFile=../../profiles/res_kw_11879_pu.sng)  qmult = (sngFile=../../profiles/res_kvar_11879_pu.sng)

New Loadshape.res_kw_1646_pu npts= 35040 interval=0.25 mult = (sngFile=../../profiles/res_kw_1646_pu.sng)  qmult = (sngFile=../../profiles/res_kvar_1646_pu.sng)

New Loadshape.res_kw_3668_pu npts= 35040 interval=0.25 mult = (sngFile=../../profiles/res_kw_3668_pu.sng)  qmult = (sngFile=../../profiles/res_kvar_3668_pu.sng)

New Loadshape.res_kw_7653_pu npts= 35040 interval=0.25 mult = (sngFile=../../profiles/res_kw_7653_pu.sng)  qmult = (sngFile=../../profiles/res_kvar_7653_pu.sng)

New Loadshape.res_kw_692_pu npts= 35040 interval=0.25 mult = (sngFile=../../profiles/res_kw_692_pu.sng)  qmult = (sngFile=../../profiles/res_kvar_692_pu.sng)

New Loadshape.res_kw_7631_pu npts= 35040 interval=0.25 mult = (sngFile=../../profiles/res_kw_7631_pu.sng)  qmult = (sngFile=../../profiles/res_kvar_7631_pu.sng)

New Loadshape.res_kw_13594_pu npts= 35040 interval=0.25 mult = (sngFile=../../profiles/res_kw_13594_pu.sng)  qmult = (sngFile=../../profiles/res_kvar_13594_pu.sng)

New Loadshape.res_kw_1320_pu npts= 35040 interval=0.25 mult = (sngFile=../../profiles/res_kw_1320_pu.sng)  qmult = (sngFile=../../profiles/res_kvar_1320_pu.sng)

New Loadshape.res_kw_11687_pu npts= 35040 interval=0.25 mult = (sngFile=../../profiles/res_kw_11687_pu.sng)  qmult = (sngFile=../../profiles/res_kvar_11687_pu.sng)

New Loadshape.res_kw_7264_pu npts= 35040 interval=0.25 mult = (sngFile=../../profiles/res_kw_7264_pu.sng)  qmult = (sngFile=../../profiles/res_kvar_7264_pu.sng)

New Loadshape.res_kw_11859_pu npts= 35040 interval=0.25 mult = (sngFile=../../profiles/res_kw_11859_pu.sng)  qmult = (sngFile=../../profiles/res_kvar_11859_pu.sng)

New Loadshape.res_kw_2223_pu npts= 35040 interval=0.25 mult = (sngFile=../../profiles/res_kw_2223_pu.sng)  qmult = (sngFile=../../profiles/res_kvar_2223_pu.sng)

New Loadshape.res_kw_7658_pu npts= 35040 interval=0.25 mult = (sngFile=../../profiles/res_kw_7658_pu.sng)  qmult = (sngFile=../../profiles/res_kvar_7658_pu.sng)

New Loadshape.res_kw_4402_pu npts= 35040 interval=0.25 mult = (sngFile=../../profiles/res_kw_4402_pu.sng)  qmult = (sngFile=../../profiles/res_kvar_4402_pu.sng)

New Loadshape.res_kw_1261_pu npts= 35040 interval=0.25 mult = (sngFile=../../profiles/res_kw_1261_pu.sng)  qmult = (sngFile=../../profiles/res_kvar_1261_pu.sng)

New Loadshape.res_kw_5750_pu npts= 35040 interval=0.25 mult = (sngFile=../../profiles/res_kw_5750_pu.sng)  qmult = (sngFile=../../profiles/res_kvar_5750_pu.sng)

New Loadshape.res_kw_2947_pu npts= 35040 interval=0.25 mult = (sngFile=../../profiles/res_kw_2947_pu.sng)  qmult = (sngFile=../../profiles/res_kvar_2947_pu.sng)

New Loadshape.res_kw_13931_pu npts= 35040 interval=0.25 mult = (sngFile=../../profiles/res_kw_13931_pu.sng)  qmult = (sngFile=../../profiles/res_kvar_13931_pu.sng)

New Loadshape.res_kw_13503_pu npts= 35040 interval=0.25 mult = (sngFile=../../profiles/res_kw_13503_pu.sng)  qmult = (sngFile=../../profiles/res_kvar_13503_pu.sng)

New Loadshape.res_kw_9454_pu npts= 35040 interval=0.25 mult = (sngFile=../../profiles/res_kw_9454_pu.sng)  qmult = (sngFile=../../profiles/res_kvar_9454_pu.sng)

New Loadshape.res_kw_3426_pu npts= 35040 interval=0.25 mult = (sngFile=../../profiles/res_kw_3426_pu.sng)  qmult = (sngFile=../../profiles/res_kvar_3426_pu.sng)
