New Loadshape.SFO_37.7658_-122.3414_15_135 npts= 35040 interval=0.25 mult = (sngFile=../../../profiles/SFO_37.7658_-122.3414_15_135.sng)

New Loadshape.SFO_37.8026_-122.3414_15_180 npts= 35040 interval=0.25 mult = (sngFile=../../../profiles/SFO_37.8026_-122.3414_15_180.sng)

New Loadshape.SFO_37.8026_-122.3414_25_180 npts= 35040 interval=0.25 mult = (sngFile=../../../profiles/SFO_37.8026_-122.3414_25_180.sng)

New Loadshape.SFO_37.8026_-122.3414_35_90 npts= 35040 interval=0.25 mult = (sngFile=../../../profiles/SFO_37.8026_-122.3414_35_90.sng)

New Loadshape.SFO_37.8026_-122.3414_25_225 npts= 35040 interval=0.25 mult = (sngFile=../../../profiles/SFO_37.8026_-122.3414_25_225.sng)

New Loadshape.SFO_37.8026_-122.3414_15_135 npts= 35040 interval=0.25 mult = (sngFile=../../../profiles/SFO_37.8026_-122.3414_15_135.sng)

New Loadshape.SFO_37.8026_-122.3414_25_135 npts= 35040 interval=0.25 mult = (sngFile=../../../profiles/SFO_37.8026_-122.3414_25_135.sng)

New Loadshape.SFO_37.8026_-122.3414_25_270 npts= 35040 interval=0.25 mult = (sngFile=../../../profiles/SFO_37.8026_-122.3414_25_270.sng)

New Loadshape.SFO_37.8026_-122.3414_15_225 npts= 35040 interval=0.25 mult = (sngFile=../../../profiles/SFO_37.8026_-122.3414_15_225.sng)

New Loadshape.SFO_37.8026_-122.3414_35_135 npts= 35040 interval=0.25 mult = (sngFile=../../../profiles/SFO_37.8026_-122.3414_35_135.sng)

New Loadshape.SFO_37.8026_-122.3414_35_180 npts= 35040 interval=0.25 mult = (sngFile=../../../profiles/SFO_37.8026_-122.3414_35_180.sng)

New Loadshape.SFO_37.8026_-122.3414_25_90 npts= 35040 interval=0.25 mult = (sngFile=../../../profiles/SFO_37.8026_-122.3414_25_90.sng)

New Loadshape.SFO_37.8026_-122.3414_15_270 npts= 35040 interval=0.25 mult = (sngFile=../../../profiles/SFO_37.8026_-122.3414_15_270.sng)

New Loadshape.SFO_37.8026_-122.3414_45_225 npts= 35040 interval=0.25 mult = (sngFile=../../../profiles/SFO_37.8026_-122.3414_45_225.sng)

New Loadshape.SFO_37.8026_-122.3414_15_90 npts= 35040 interval=0.25 mult = (sngFile=../../../profiles/SFO_37.8026_-122.3414_15_90.sng)

New Loadshape.SFO_37.8026_-122.3414_35_225 npts= 35040 interval=0.25 mult = (sngFile=../../../profiles/SFO_37.8026_-122.3414_35_225.sng)

New Loadshape.SFO_37.8026_-122.3414_35_270 npts= 35040 interval=0.25 mult = (sngFile=../../../profiles/SFO_37.8026_-122.3414_35_270.sng)

New Loadshape.SFO_37.8026_-122.3414_45_135 npts= 35040 interval=0.25 mult = (sngFile=../../../profiles/SFO_37.8026_-122.3414_45_135.sng)

New Loadshape.SFO_37.8026_-122.3414_45_270 npts= 35040 interval=0.25 mult = (sngFile=../../../profiles/SFO_37.8026_-122.3414_45_270.sng)

New Loadshape.SFO_37.8026_-122.3414_45_180 npts= 35040 interval=0.25 mult = (sngFile=../../../profiles/SFO_37.8026_-122.3414_45_180.sng)

New Loadshape.SFO_37.8026_-122.3414_45_90 npts= 35040 interval=0.25 mult = (sngFile=../../../profiles/SFO_37.8026_-122.3414_45_90.sng)

New Loadshape.SFO_37.7658_-122.3414_25_180 npts= 35040 interval=0.25 mult = (sngFile=../../../profiles/SFO_37.7658_-122.3414_25_180.sng)

New Loadshape.res_kw_9449_pu npts= 35040 interval=0.25 mult = (sngFile=../../../profiles/res_kw_9449_pu.sng) qmult = (sngFile=../../../profiles/res_kvar_9449_pu.sng)

New Loadshape.res_kw_12575_pu npts= 35040 interval=0.25 mult = (sngFile=../../../profiles/res_kw_12575_pu.sng) qmult = (sngFile=../../../profiles/res_kvar_12575_pu.sng)

New Loadshape.res_kw_11357_pu npts= 35040 interval=0.25 mult = (sngFile=../../../profiles/res_kw_11357_pu.sng) qmult = (sngFile=../../../profiles/res_kvar_11357_pu.sng)

New Loadshape.res_kw_557_pu npts= 35040 interval=0.25 mult = (sngFile=../../../profiles/res_kw_557_pu.sng) qmult = (sngFile=../../../profiles/res_kvar_557_pu.sng)

New Loadshape.res_kw_2428_pu npts= 35040 interval=0.25 mult = (sngFile=../../../profiles/res_kw_2428_pu.sng) qmult = (sngFile=../../../profiles/res_kvar_2428_pu.sng)

New Loadshape.res_kw_3389_pu npts= 35040 interval=0.25 mult = (sngFile=../../../profiles/res_kw_3389_pu.sng) qmult = (sngFile=../../../profiles/res_kvar_3389_pu.sng)

New Loadshape.res_kw_1937_pu npts= 35040 interval=0.25 mult = (sngFile=../../../profiles/res_kw_1937_pu.sng) qmult = (sngFile=../../../profiles/res_kvar_1937_pu.sng)

New Loadshape.res_kw_2868_pu npts= 35040 interval=0.25 mult = (sngFile=../../../profiles/res_kw_2868_pu.sng) qmult = (sngFile=../../../profiles/res_kvar_2868_pu.sng)

New Loadshape.res_kw_1930_pu npts= 35040 interval=0.25 mult = (sngFile=../../../profiles/res_kw_1930_pu.sng) qmult = (sngFile=../../../profiles/res_kvar_1930_pu.sng)

New Loadshape.res_kw_12479_pu npts= 35040 interval=0.25 mult = (sngFile=../../../profiles/res_kw_12479_pu.sng) qmult = (sngFile=../../../profiles/res_kvar_12479_pu.sng)

New Loadshape.res_kw_13855_pu npts= 35040 interval=0.25 mult = (sngFile=../../../profiles/res_kw_13855_pu.sng) qmult = (sngFile=../../../profiles/res_kvar_13855_pu.sng)

New Loadshape.res_kw_10211_pu npts= 35040 interval=0.25 mult = (sngFile=../../../profiles/res_kw_10211_pu.sng) qmult = (sngFile=../../../profiles/res_kvar_10211_pu.sng)

New Loadshape.res_kw_1389_pu npts= 35040 interval=0.25 mult = (sngFile=../../../profiles/res_kw_1389_pu.sng) qmult = (sngFile=../../../profiles/res_kvar_1389_pu.sng)

New Loadshape.res_kw_4848_pu npts= 35040 interval=0.25 mult = (sngFile=../../../profiles/res_kw_4848_pu.sng) qmult = (sngFile=../../../profiles/res_kvar_4848_pu.sng)

New Loadshape.res_kw_1154_pu npts= 35040 interval=0.25 mult = (sngFile=../../../profiles/res_kw_1154_pu.sng) qmult = (sngFile=../../../profiles/res_kvar_1154_pu.sng)

New Loadshape.res_kw_9871_pu npts= 35040 interval=0.25 mult = (sngFile=../../../profiles/res_kw_9871_pu.sng) qmult = (sngFile=../../../profiles/res_kvar_9871_pu.sng)

New Loadshape.res_kw_12608_pu npts= 35040 interval=0.25 mult = (sngFile=../../../profiles/res_kw_12608_pu.sng) qmult = (sngFile=../../../profiles/res_kvar_12608_pu.sng)

New Loadshape.res_kw_3364_pu npts= 35040 interval=0.25 mult = (sngFile=../../../profiles/res_kw_3364_pu.sng) qmult = (sngFile=../../../profiles/res_kvar_3364_pu.sng)

New Loadshape.res_kw_14716_pu npts= 35040 interval=0.25 mult = (sngFile=../../../profiles/res_kw_14716_pu.sng) qmult = (sngFile=../../../profiles/res_kvar_14716_pu.sng)

New Loadshape.res_kw_3094_pu npts= 35040 interval=0.25 mult = (sngFile=../../../profiles/res_kw_3094_pu.sng) qmult = (sngFile=../../../profiles/res_kvar_3094_pu.sng)

New Loadshape.res_kw_4592_pu npts= 35040 interval=0.25 mult = (sngFile=../../../profiles/res_kw_4592_pu.sng) qmult = (sngFile=../../../profiles/res_kvar_4592_pu.sng)

New Loadshape.res_kw_4845_pu npts= 35040 interval=0.25 mult = (sngFile=../../../profiles/res_kw_4845_pu.sng) qmult = (sngFile=../../../profiles/res_kvar_4845_pu.sng)

New Loadshape.res_kw_4922_pu npts= 35040 interval=0.25 mult = (sngFile=../../../profiles/res_kw_4922_pu.sng) qmult = (sngFile=../../../profiles/res_kvar_4922_pu.sng)

New Loadshape.res_kw_10142_pu npts= 35040 interval=0.25 mult = (sngFile=../../../profiles/res_kw_10142_pu.sng) qmult = (sngFile=../../../profiles/res_kvar_10142_pu.sng)

New Loadshape.res_kw_2603_pu npts= 35040 interval=0.25 mult = (sngFile=../../../profiles/res_kw_2603_pu.sng) qmult = (sngFile=../../../profiles/res_kvar_2603_pu.sng)

New Loadshape.res_kw_10231_pu npts= 35040 interval=0.25 mult = (sngFile=../../../profiles/res_kw_10231_pu.sng) qmult = (sngFile=../../../profiles/res_kvar_10231_pu.sng)

New Loadshape.res_kw_2562_pu npts= 35040 interval=0.25 mult = (sngFile=../../../profiles/res_kw_2562_pu.sng) qmult = (sngFile=../../../profiles/res_kvar_2562_pu.sng)

New Loadshape.res_kw_10938_pu npts= 35040 interval=0.25 mult = (sngFile=../../../profiles/res_kw_10938_pu.sng) qmult = (sngFile=../../../profiles/res_kvar_10938_pu.sng)

New Loadshape.res_kw_11983_pu npts= 35040 interval=0.25 mult = (sngFile=../../../profiles/res_kw_11983_pu.sng) qmult = (sngFile=../../../profiles/res_kvar_11983_pu.sng)

New Loadshape.res_kw_13175_pu npts= 35040 interval=0.25 mult = (sngFile=../../../profiles/res_kw_13175_pu.sng) qmult = (sngFile=../../../profiles/res_kvar_13175_pu.sng)

New Loadshape.res_kw_12609_pu npts= 35040 interval=0.25 mult = (sngFile=../../../profiles/res_kw_12609_pu.sng) qmult = (sngFile=../../../profiles/res_kvar_12609_pu.sng)

New Loadshape.res_kw_7158_pu npts= 35040 interval=0.25 mult = (sngFile=../../../profiles/res_kw_7158_pu.sng) qmult = (sngFile=../../../profiles/res_kvar_7158_pu.sng)

New Loadshape.res_kw_6751_pu npts= 35040 interval=0.25 mult = (sngFile=../../../profiles/res_kw_6751_pu.sng) qmult = (sngFile=../../../profiles/res_kvar_6751_pu.sng)

New Loadshape.res_kw_14920_pu npts= 35040 interval=0.25 mult = (sngFile=../../../profiles/res_kw_14920_pu.sng) qmult = (sngFile=../../../profiles/res_kvar_14920_pu.sng)

New Loadshape.res_kw_14309_pu npts= 35040 interval=0.25 mult = (sngFile=../../../profiles/res_kw_14309_pu.sng) qmult = (sngFile=../../../profiles/res_kvar_14309_pu.sng)

New Loadshape.res_kw_1779_pu npts= 35040 interval=0.25 mult = (sngFile=../../../profiles/res_kw_1779_pu.sng) qmult = (sngFile=../../../profiles/res_kvar_1779_pu.sng)

New Loadshape.res_kw_13149_pu npts= 35040 interval=0.25 mult = (sngFile=../../../profiles/res_kw_13149_pu.sng) qmult = (sngFile=../../../profiles/res_kvar_13149_pu.sng)

New Loadshape.res_kw_7116_pu npts= 35040 interval=0.25 mult = (sngFile=../../../profiles/res_kw_7116_pu.sng) qmult = (sngFile=../../../profiles/res_kvar_7116_pu.sng)

New Loadshape.res_kw_3247_pu npts= 35040 interval=0.25 mult = (sngFile=../../../profiles/res_kw_3247_pu.sng) qmult = (sngFile=../../../profiles/res_kvar_3247_pu.sng)

New Loadshape.res_kw_14146_pu npts= 35040 interval=0.25 mult = (sngFile=../../../profiles/res_kw_14146_pu.sng) qmult = (sngFile=../../../profiles/res_kvar_14146_pu.sng)

New Loadshape.res_kw_6546_pu npts= 35040 interval=0.25 mult = (sngFile=../../../profiles/res_kw_6546_pu.sng) qmult = (sngFile=../../../profiles/res_kvar_6546_pu.sng)

New Loadshape.res_kw_13960_pu npts= 35040 interval=0.25 mult = (sngFile=../../../profiles/res_kw_13960_pu.sng) qmult = (sngFile=../../../profiles/res_kvar_13960_pu.sng)

New Loadshape.res_kw_9104_pu npts= 35040 interval=0.25 mult = (sngFile=../../../profiles/res_kw_9104_pu.sng) qmult = (sngFile=../../../profiles/res_kvar_9104_pu.sng)

New Loadshape.res_kw_8535_pu npts= 35040 interval=0.25 mult = (sngFile=../../../profiles/res_kw_8535_pu.sng) qmult = (sngFile=../../../profiles/res_kvar_8535_pu.sng)

New Loadshape.res_kw_9428_pu npts= 35040 interval=0.25 mult = (sngFile=../../../profiles/res_kw_9428_pu.sng) qmult = (sngFile=../../../profiles/res_kvar_9428_pu.sng)

New Loadshape.res_kw_6845_pu npts= 35040 interval=0.25 mult = (sngFile=../../../profiles/res_kw_6845_pu.sng) qmult = (sngFile=../../../profiles/res_kvar_6845_pu.sng)

New Loadshape.res_kw_4363_pu npts= 35040 interval=0.25 mult = (sngFile=../../../profiles/res_kw_4363_pu.sng) qmult = (sngFile=../../../profiles/res_kvar_4363_pu.sng)

New Loadshape.res_kw_910_pu npts= 35040 interval=0.25 mult = (sngFile=../../../profiles/res_kw_910_pu.sng) qmult = (sngFile=../../../profiles/res_kvar_910_pu.sng)

New Loadshape.res_kw_11186_pu npts= 35040 interval=0.25 mult = (sngFile=../../../profiles/res_kw_11186_pu.sng) qmult = (sngFile=../../../profiles/res_kvar_11186_pu.sng)

New Loadshape.res_kw_5148_pu npts= 35040 interval=0.25 mult = (sngFile=../../../profiles/res_kw_5148_pu.sng) qmult = (sngFile=../../../profiles/res_kvar_5148_pu.sng)

New Loadshape.res_kw_12295_pu npts= 35040 interval=0.25 mult = (sngFile=../../../profiles/res_kw_12295_pu.sng) qmult = (sngFile=../../../profiles/res_kvar_12295_pu.sng)

New Loadshape.res_kw_2580_pu npts= 35040 interval=0.25 mult = (sngFile=../../../profiles/res_kw_2580_pu.sng) qmult = (sngFile=../../../profiles/res_kvar_2580_pu.sng)

New Loadshape.res_kw_9748_pu npts= 35040 interval=0.25 mult = (sngFile=../../../profiles/res_kw_9748_pu.sng) qmult = (sngFile=../../../profiles/res_kvar_9748_pu.sng)

New Loadshape.res_kw_14302_pu npts= 35040 interval=0.25 mult = (sngFile=../../../profiles/res_kw_14302_pu.sng) qmult = (sngFile=../../../profiles/res_kvar_14302_pu.sng)

New Loadshape.res_kw_15179_pu npts= 35040 interval=0.25 mult = (sngFile=../../../profiles/res_kw_15179_pu.sng) qmult = (sngFile=../../../profiles/res_kvar_15179_pu.sng)

New Loadshape.res_kw_4320_pu npts= 35040 interval=0.25 mult = (sngFile=../../../profiles/res_kw_4320_pu.sng) qmult = (sngFile=../../../profiles/res_kvar_4320_pu.sng)

New Loadshape.res_kw_7411_pu npts= 35040 interval=0.25 mult = (sngFile=../../../profiles/res_kw_7411_pu.sng) qmult = (sngFile=../../../profiles/res_kvar_7411_pu.sng)

New Loadshape.res_kw_4496_pu npts= 35040 interval=0.25 mult = (sngFile=../../../profiles/res_kw_4496_pu.sng) qmult = (sngFile=../../../profiles/res_kvar_4496_pu.sng)

New Loadshape.res_kw_11802_pu npts= 35040 interval=0.25 mult = (sngFile=../../../profiles/res_kw_11802_pu.sng) qmult = (sngFile=../../../profiles/res_kvar_11802_pu.sng)

New Loadshape.res_kw_6317_pu npts= 35040 interval=0.25 mult = (sngFile=../../../profiles/res_kw_6317_pu.sng) qmult = (sngFile=../../../profiles/res_kvar_6317_pu.sng)

New Loadshape.res_kw_14289_pu npts= 35040 interval=0.25 mult = (sngFile=../../../profiles/res_kw_14289_pu.sng) qmult = (sngFile=../../../profiles/res_kvar_14289_pu.sng)

New Loadshape.res_kw_1335_pu npts= 35040 interval=0.25 mult = (sngFile=../../../profiles/res_kw_1335_pu.sng) qmult = (sngFile=../../../profiles/res_kvar_1335_pu.sng)

New Loadshape.res_kw_13459_pu npts= 35040 interval=0.25 mult = (sngFile=../../../profiles/res_kw_13459_pu.sng) qmult = (sngFile=../../../profiles/res_kvar_13459_pu.sng)

New Loadshape.res_kw_13338_pu npts= 35040 interval=0.25 mult = (sngFile=../../../profiles/res_kw_13338_pu.sng) qmult = (sngFile=../../../profiles/res_kvar_13338_pu.sng)

New Loadshape.res_kw_6028_pu npts= 35040 interval=0.25 mult = (sngFile=../../../profiles/res_kw_6028_pu.sng) qmult = (sngFile=../../../profiles/res_kvar_6028_pu.sng)

New Loadshape.res_kw_10629_pu npts= 35040 interval=0.25 mult = (sngFile=../../../profiles/res_kw_10629_pu.sng) qmult = (sngFile=../../../profiles/res_kvar_10629_pu.sng)

New Loadshape.res_kw_3219_pu npts= 35040 interval=0.25 mult = (sngFile=../../../profiles/res_kw_3219_pu.sng) qmult = (sngFile=../../../profiles/res_kvar_3219_pu.sng)

New Loadshape.res_kw_1517_pu npts= 35040 interval=0.25 mult = (sngFile=../../../profiles/res_kw_1517_pu.sng) qmult = (sngFile=../../../profiles/res_kvar_1517_pu.sng)

New Loadshape.res_kw_9761_pu npts= 35040 interval=0.25 mult = (sngFile=../../../profiles/res_kw_9761_pu.sng) qmult = (sngFile=../../../profiles/res_kvar_9761_pu.sng)

New Loadshape.res_kw_6620_pu npts= 35040 interval=0.25 mult = (sngFile=../../../profiles/res_kw_6620_pu.sng) qmult = (sngFile=../../../profiles/res_kvar_6620_pu.sng)

New Loadshape.res_kw_13955_pu npts= 35040 interval=0.25 mult = (sngFile=../../../profiles/res_kw_13955_pu.sng) qmult = (sngFile=../../../profiles/res_kvar_13955_pu.sng)

New Loadshape.res_kw_11883_pu npts= 35040 interval=0.25 mult = (sngFile=../../../profiles/res_kw_11883_pu.sng) qmult = (sngFile=../../../profiles/res_kvar_11883_pu.sng)

New Loadshape.res_kw_6308_pu npts= 35040 interval=0.25 mult = (sngFile=../../../profiles/res_kw_6308_pu.sng) qmult = (sngFile=../../../profiles/res_kvar_6308_pu.sng)

New Loadshape.res_kw_7366_pu npts= 35040 interval=0.25 mult = (sngFile=../../../profiles/res_kw_7366_pu.sng) qmult = (sngFile=../../../profiles/res_kvar_7366_pu.sng)

New Loadshape.res_kw_14500_pu npts= 35040 interval=0.25 mult = (sngFile=../../../profiles/res_kw_14500_pu.sng) qmult = (sngFile=../../../profiles/res_kvar_14500_pu.sng)

New Loadshape.res_kw_13349_pu npts= 35040 interval=0.25 mult = (sngFile=../../../profiles/res_kw_13349_pu.sng) qmult = (sngFile=../../../profiles/res_kvar_13349_pu.sng)

New Loadshape.res_kw_10915_pu npts= 35040 interval=0.25 mult = (sngFile=../../../profiles/res_kw_10915_pu.sng) qmult = (sngFile=../../../profiles/res_kvar_10915_pu.sng)

New Loadshape.res_kw_9093_pu npts= 35040 interval=0.25 mult = (sngFile=../../../profiles/res_kw_9093_pu.sng) qmult = (sngFile=../../../profiles/res_kvar_9093_pu.sng)

New Loadshape.res_kw_5633_pu npts= 35040 interval=0.25 mult = (sngFile=../../../profiles/res_kw_5633_pu.sng) qmult = (sngFile=../../../profiles/res_kvar_5633_pu.sng)

New Loadshape.res_kw_5899_pu npts= 35040 interval=0.25 mult = (sngFile=../../../profiles/res_kw_5899_pu.sng) qmult = (sngFile=../../../profiles/res_kvar_5899_pu.sng)

New Loadshape.res_kw_8317_pu npts= 35040 interval=0.25 mult = (sngFile=../../../profiles/res_kw_8317_pu.sng) qmult = (sngFile=../../../profiles/res_kvar_8317_pu.sng)

New Loadshape.res_kw_6239_pu npts= 35040 interval=0.25 mult = (sngFile=../../../profiles/res_kw_6239_pu.sng) qmult = (sngFile=../../../profiles/res_kvar_6239_pu.sng)

New Loadshape.res_kw_5425_pu npts= 35040 interval=0.25 mult = (sngFile=../../../profiles/res_kw_5425_pu.sng) qmult = (sngFile=../../../profiles/res_kvar_5425_pu.sng)

New Loadshape.res_kw_14754_pu npts= 35040 interval=0.25 mult = (sngFile=../../../profiles/res_kw_14754_pu.sng) qmult = (sngFile=../../../profiles/res_kvar_14754_pu.sng)

New Loadshape.res_kw_13542_pu npts= 35040 interval=0.25 mult = (sngFile=../../../profiles/res_kw_13542_pu.sng) qmult = (sngFile=../../../profiles/res_kvar_13542_pu.sng)

New Loadshape.res_kw_11372_pu npts= 35040 interval=0.25 mult = (sngFile=../../../profiles/res_kw_11372_pu.sng) qmult = (sngFile=../../../profiles/res_kvar_11372_pu.sng)

New Loadshape.res_kw_3758_pu npts= 35040 interval=0.25 mult = (sngFile=../../../profiles/res_kw_3758_pu.sng) qmult = (sngFile=../../../profiles/res_kvar_3758_pu.sng)

New Loadshape.res_kw_14119_pu npts= 35040 interval=0.25 mult = (sngFile=../../../profiles/res_kw_14119_pu.sng) qmult = (sngFile=../../../profiles/res_kvar_14119_pu.sng)

New Loadshape.res_kw_6776_pu npts= 35040 interval=0.25 mult = (sngFile=../../../profiles/res_kw_6776_pu.sng) qmult = (sngFile=../../../profiles/res_kvar_6776_pu.sng)

New Loadshape.res_kw_11059_pu npts= 35040 interval=0.25 mult = (sngFile=../../../profiles/res_kw_11059_pu.sng) qmult = (sngFile=../../../profiles/res_kvar_11059_pu.sng)

New Loadshape.res_kw_14465_pu npts= 35040 interval=0.25 mult = (sngFile=../../../profiles/res_kw_14465_pu.sng) qmult = (sngFile=../../../profiles/res_kvar_14465_pu.sng)

New Loadshape.res_kw_6420_pu npts= 35040 interval=0.25 mult = (sngFile=../../../profiles/res_kw_6420_pu.sng) qmult = (sngFile=../../../profiles/res_kvar_6420_pu.sng)

New Loadshape.res_kw_12599_pu npts= 35040 interval=0.25 mult = (sngFile=../../../profiles/res_kw_12599_pu.sng) qmult = (sngFile=../../../profiles/res_kvar_12599_pu.sng)

New Loadshape.res_kw_13631_pu npts= 35040 interval=0.25 mult = (sngFile=../../../profiles/res_kw_13631_pu.sng) qmult = (sngFile=../../../profiles/res_kvar_13631_pu.sng)

New Loadshape.res_kw_12224_pu npts= 35040 interval=0.25 mult = (sngFile=../../../profiles/res_kw_12224_pu.sng) qmult = (sngFile=../../../profiles/res_kvar_12224_pu.sng)

New Loadshape.res_kw_11798_pu npts= 35040 interval=0.25 mult = (sngFile=../../../profiles/res_kw_11798_pu.sng) qmult = (sngFile=../../../profiles/res_kvar_11798_pu.sng)

New Loadshape.res_kw_13052_pu npts= 35040 interval=0.25 mult = (sngFile=../../../profiles/res_kw_13052_pu.sng) qmult = (sngFile=../../../profiles/res_kvar_13052_pu.sng)

New Loadshape.res_kw_3510_pu npts= 35040 interval=0.25 mult = (sngFile=../../../profiles/res_kw_3510_pu.sng) qmult = (sngFile=../../../profiles/res_kvar_3510_pu.sng)

New Loadshape.res_kw_7885_pu npts= 35040 interval=0.25 mult = (sngFile=../../../profiles/res_kw_7885_pu.sng) qmult = (sngFile=../../../profiles/res_kvar_7885_pu.sng)

New Loadshape.res_kw_1525_pu npts= 35040 interval=0.25 mult = (sngFile=../../../profiles/res_kw_1525_pu.sng) qmult = (sngFile=../../../profiles/res_kvar_1525_pu.sng)

New Loadshape.res_kw_11387_pu npts= 35040 interval=0.25 mult = (sngFile=../../../profiles/res_kw_11387_pu.sng) qmult = (sngFile=../../../profiles/res_kvar_11387_pu.sng)

New Loadshape.res_kw_1572_pu npts= 35040 interval=0.25 mult = (sngFile=../../../profiles/res_kw_1572_pu.sng) qmult = (sngFile=../../../profiles/res_kvar_1572_pu.sng)

New Loadshape.res_kw_13685_pu npts= 35040 interval=0.25 mult = (sngFile=../../../profiles/res_kw_13685_pu.sng) qmult = (sngFile=../../../profiles/res_kvar_13685_pu.sng)

New Loadshape.res_kw_11721_pu npts= 35040 interval=0.25 mult = (sngFile=../../../profiles/res_kw_11721_pu.sng) qmult = (sngFile=../../../profiles/res_kvar_11721_pu.sng)

New Loadshape.res_kw_15105_pu npts= 35040 interval=0.25 mult = (sngFile=../../../profiles/res_kw_15105_pu.sng) qmult = (sngFile=../../../profiles/res_kvar_15105_pu.sng)

New Loadshape.res_kw_9131_pu npts= 35040 interval=0.25 mult = (sngFile=../../../profiles/res_kw_9131_pu.sng) qmult = (sngFile=../../../profiles/res_kvar_9131_pu.sng)

New Loadshape.res_kw_4670_pu npts= 35040 interval=0.25 mult = (sngFile=../../../profiles/res_kw_4670_pu.sng) qmult = (sngFile=../../../profiles/res_kvar_4670_pu.sng)

New Loadshape.res_kw_3977_pu npts= 35040 interval=0.25 mult = (sngFile=../../../profiles/res_kw_3977_pu.sng) qmult = (sngFile=../../../profiles/res_kvar_3977_pu.sng)

New Loadshape.res_kw_547_pu npts= 35040 interval=0.25 mult = (sngFile=../../../profiles/res_kw_547_pu.sng) qmult = (sngFile=../../../profiles/res_kvar_547_pu.sng)

New Loadshape.res_kw_200_pu npts= 35040 interval=0.25 mult = (sngFile=../../../profiles/res_kw_200_pu.sng) qmult = (sngFile=../../../profiles/res_kvar_200_pu.sng)

New Loadshape.res_kw_212_pu npts= 35040 interval=0.25 mult = (sngFile=../../../profiles/res_kw_212_pu.sng) qmult = (sngFile=../../../profiles/res_kvar_212_pu.sng)

New Loadshape.res_kw_6615_pu npts= 35040 interval=0.25 mult = (sngFile=../../../profiles/res_kw_6615_pu.sng) qmult = (sngFile=../../../profiles/res_kvar_6615_pu.sng)

New Loadshape.res_kw_4599_pu npts= 35040 interval=0.25 mult = (sngFile=../../../profiles/res_kw_4599_pu.sng) qmult = (sngFile=../../../profiles/res_kvar_4599_pu.sng)

New Loadshape.res_kw_13424_pu npts= 35040 interval=0.25 mult = (sngFile=../../../profiles/res_kw_13424_pu.sng) qmult = (sngFile=../../../profiles/res_kvar_13424_pu.sng)

New Loadshape.res_kw_10838_pu npts= 35040 interval=0.25 mult = (sngFile=../../../profiles/res_kw_10838_pu.sng) qmult = (sngFile=../../../profiles/res_kvar_10838_pu.sng)

New Loadshape.res_kw_3839_pu npts= 35040 interval=0.25 mult = (sngFile=../../../profiles/res_kw_3839_pu.sng) qmult = (sngFile=../../../profiles/res_kvar_3839_pu.sng)

New Loadshape.res_kw_12943_pu npts= 35040 interval=0.25 mult = (sngFile=../../../profiles/res_kw_12943_pu.sng) qmult = (sngFile=../../../profiles/res_kvar_12943_pu.sng)

New Loadshape.res_kw_7832_pu npts= 35040 interval=0.25 mult = (sngFile=../../../profiles/res_kw_7832_pu.sng) qmult = (sngFile=../../../profiles/res_kvar_7832_pu.sng)

New Loadshape.res_kw_11366_pu npts= 35040 interval=0.25 mult = (sngFile=../../../profiles/res_kw_11366_pu.sng) qmult = (sngFile=../../../profiles/res_kvar_11366_pu.sng)

New Loadshape.res_kw_2250_pu npts= 35040 interval=0.25 mult = (sngFile=../../../profiles/res_kw_2250_pu.sng) qmult = (sngFile=../../../profiles/res_kvar_2250_pu.sng)

New Loadshape.res_kw_9694_pu npts= 35040 interval=0.25 mult = (sngFile=../../../profiles/res_kw_9694_pu.sng) qmult = (sngFile=../../../profiles/res_kvar_9694_pu.sng)

New Loadshape.res_kw_13866_pu npts= 35040 interval=0.25 mult = (sngFile=../../../profiles/res_kw_13866_pu.sng) qmult = (sngFile=../../../profiles/res_kvar_13866_pu.sng)

New Loadshape.res_kw_14639_pu npts= 35040 interval=0.25 mult = (sngFile=../../../profiles/res_kw_14639_pu.sng) qmult = (sngFile=../../../profiles/res_kvar_14639_pu.sng)

New Loadshape.res_kw_5369_pu npts= 35040 interval=0.25 mult = (sngFile=../../../profiles/res_kw_5369_pu.sng) qmult = (sngFile=../../../profiles/res_kvar_5369_pu.sng)

New Loadshape.res_kw_8349_pu npts= 35040 interval=0.25 mult = (sngFile=../../../profiles/res_kw_8349_pu.sng) qmult = (sngFile=../../../profiles/res_kvar_8349_pu.sng)

New Loadshape.res_kw_5237_pu npts= 35040 interval=0.25 mult = (sngFile=../../../profiles/res_kw_5237_pu.sng) qmult = (sngFile=../../../profiles/res_kvar_5237_pu.sng)

New Loadshape.res_kw_15085_pu npts= 35040 interval=0.25 mult = (sngFile=../../../profiles/res_kw_15085_pu.sng) qmult = (sngFile=../../../profiles/res_kvar_15085_pu.sng)

New Loadshape.res_kw_13258_pu npts= 35040 interval=0.25 mult = (sngFile=../../../profiles/res_kw_13258_pu.sng) qmult = (sngFile=../../../profiles/res_kvar_13258_pu.sng)

New Loadshape.res_kw_5439_pu npts= 35040 interval=0.25 mult = (sngFile=../../../profiles/res_kw_5439_pu.sng) qmult = (sngFile=../../../profiles/res_kvar_5439_pu.sng)

New Loadshape.res_kw_7030_pu npts= 35040 interval=0.25 mult = (sngFile=../../../profiles/res_kw_7030_pu.sng) qmult = (sngFile=../../../profiles/res_kvar_7030_pu.sng)

New Loadshape.res_kw_448_pu npts= 35040 interval=0.25 mult = (sngFile=../../../profiles/res_kw_448_pu.sng) qmult = (sngFile=../../../profiles/res_kvar_448_pu.sng)

New Loadshape.res_kw_11695_pu npts= 35040 interval=0.25 mult = (sngFile=../../../profiles/res_kw_11695_pu.sng) qmult = (sngFile=../../../profiles/res_kvar_11695_pu.sng)

New Loadshape.res_kw_7029_pu npts= 35040 interval=0.25 mult = (sngFile=../../../profiles/res_kw_7029_pu.sng) qmult = (sngFile=../../../profiles/res_kvar_7029_pu.sng)

New Loadshape.res_kw_14863_pu npts= 35040 interval=0.25 mult = (sngFile=../../../profiles/res_kw_14863_pu.sng) qmult = (sngFile=../../../profiles/res_kvar_14863_pu.sng)

New Loadshape.res_kw_7851_pu npts= 35040 interval=0.25 mult = (sngFile=../../../profiles/res_kw_7851_pu.sng) qmult = (sngFile=../../../profiles/res_kvar_7851_pu.sng)

New Loadshape.res_kw_8612_pu npts= 35040 interval=0.25 mult = (sngFile=../../../profiles/res_kw_8612_pu.sng) qmult = (sngFile=../../../profiles/res_kvar_8612_pu.sng)

New Loadshape.res_kw_2068_pu npts= 35040 interval=0.25 mult = (sngFile=../../../profiles/res_kw_2068_pu.sng) qmult = (sngFile=../../../profiles/res_kvar_2068_pu.sng)

New Loadshape.res_kw_12348_pu npts= 35040 interval=0.25 mult = (sngFile=../../../profiles/res_kw_12348_pu.sng) qmult = (sngFile=../../../profiles/res_kvar_12348_pu.sng)

New Loadshape.res_kw_11430_pu npts= 35040 interval=0.25 mult = (sngFile=../../../profiles/res_kw_11430_pu.sng) qmult = (sngFile=../../../profiles/res_kvar_11430_pu.sng)

New Loadshape.res_kw_14433_pu npts= 35040 interval=0.25 mult = (sngFile=../../../profiles/res_kw_14433_pu.sng) qmult = (sngFile=../../../profiles/res_kvar_14433_pu.sng)

New Loadshape.res_kw_14816_pu npts= 35040 interval=0.25 mult = (sngFile=../../../profiles/res_kw_14816_pu.sng) qmult = (sngFile=../../../profiles/res_kvar_14816_pu.sng)

New Loadshape.res_kw_11269_pu npts= 35040 interval=0.25 mult = (sngFile=../../../profiles/res_kw_11269_pu.sng) qmult = (sngFile=../../../profiles/res_kvar_11269_pu.sng)

New Loadshape.res_kw_5551_pu npts= 35040 interval=0.25 mult = (sngFile=../../../profiles/res_kw_5551_pu.sng) qmult = (sngFile=../../../profiles/res_kvar_5551_pu.sng)

New Loadshape.res_kw_3262_pu npts= 35040 interval=0.25 mult = (sngFile=../../../profiles/res_kw_3262_pu.sng) qmult = (sngFile=../../../profiles/res_kvar_3262_pu.sng)

New Loadshape.res_kw_4012_pu npts= 35040 interval=0.25 mult = (sngFile=../../../profiles/res_kw_4012_pu.sng) qmult = (sngFile=../../../profiles/res_kvar_4012_pu.sng)

New Loadshape.res_kw_15086_pu npts= 35040 interval=0.25 mult = (sngFile=../../../profiles/res_kw_15086_pu.sng) qmult = (sngFile=../../../profiles/res_kvar_15086_pu.sng)

New Loadshape.res_kw_7817_pu npts= 35040 interval=0.25 mult = (sngFile=../../../profiles/res_kw_7817_pu.sng) qmult = (sngFile=../../../profiles/res_kvar_7817_pu.sng)

New Loadshape.res_kw_3945_pu npts= 35040 interval=0.25 mult = (sngFile=../../../profiles/res_kw_3945_pu.sng) qmult = (sngFile=../../../profiles/res_kvar_3945_pu.sng)

New Loadshape.res_kw_1073_pu npts= 35040 interval=0.25 mult = (sngFile=../../../profiles/res_kw_1073_pu.sng) qmult = (sngFile=../../../profiles/res_kvar_1073_pu.sng)

New Loadshape.res_kw_1256_pu npts= 35040 interval=0.25 mult = (sngFile=../../../profiles/res_kw_1256_pu.sng) qmult = (sngFile=../../../profiles/res_kvar_1256_pu.sng)

New Loadshape.res_kw_13935_pu npts= 35040 interval=0.25 mult = (sngFile=../../../profiles/res_kw_13935_pu.sng) qmult = (sngFile=../../../profiles/res_kvar_13935_pu.sng)

New Loadshape.res_kw_10683_pu npts= 35040 interval=0.25 mult = (sngFile=../../../profiles/res_kw_10683_pu.sng) qmult = (sngFile=../../../profiles/res_kvar_10683_pu.sng)

New Loadshape.res_kw_10727_pu npts= 35040 interval=0.25 mult = (sngFile=../../../profiles/res_kw_10727_pu.sng) qmult = (sngFile=../../../profiles/res_kvar_10727_pu.sng)

New Loadshape.res_kw_6767_pu npts= 35040 interval=0.25 mult = (sngFile=../../../profiles/res_kw_6767_pu.sng) qmult = (sngFile=../../../profiles/res_kvar_6767_pu.sng)

New Loadshape.res_kw_819_pu npts= 35040 interval=0.25 mult = (sngFile=../../../profiles/res_kw_819_pu.sng) qmult = (sngFile=../../../profiles/res_kvar_819_pu.sng)

New Loadshape.res_kw_13575_pu npts= 35040 interval=0.25 mult = (sngFile=../../../profiles/res_kw_13575_pu.sng) qmult = (sngFile=../../../profiles/res_kvar_13575_pu.sng)

New Loadshape.res_kw_8638_pu npts= 35040 interval=0.25 mult = (sngFile=../../../profiles/res_kw_8638_pu.sng) qmult = (sngFile=../../../profiles/res_kvar_8638_pu.sng)

New Loadshape.res_kw_9729_pu npts= 35040 interval=0.25 mult = (sngFile=../../../profiles/res_kw_9729_pu.sng) qmult = (sngFile=../../../profiles/res_kvar_9729_pu.sng)

New Loadshape.res_kw_12278_pu npts= 35040 interval=0.25 mult = (sngFile=../../../profiles/res_kw_12278_pu.sng) qmult = (sngFile=../../../profiles/res_kvar_12278_pu.sng)

New Loadshape.res_kw_14625_pu npts= 35040 interval=0.25 mult = (sngFile=../../../profiles/res_kw_14625_pu.sng) qmult = (sngFile=../../../profiles/res_kvar_14625_pu.sng)
