New Loadshape.SFO_37.8395_-122.3414_45_225 npts= 35040 interval=0.25 mult = (sngFile=../../../profiles/SFO_37.8395_-122.3414_45_225.sng)

New Loadshape.SFO_37.8395_-122.3414_45_270 npts= 35040 interval=0.25 mult = (sngFile=../../../profiles/SFO_37.8395_-122.3414_45_270.sng)

New Loadshape.SFO_37.8026_-122.3414_15_270 npts= 35040 interval=0.25 mult = (sngFile=../../../profiles/SFO_37.8026_-122.3414_15_270.sng)

New Loadshape.SFO_37.8026_-122.3414_25_180 npts= 35040 interval=0.25 mult = (sngFile=../../../profiles/SFO_37.8026_-122.3414_25_180.sng)

New Loadshape.SFO_37.8395_-122.3414_15_270 npts= 35040 interval=0.25 mult = (sngFile=../../../profiles/SFO_37.8395_-122.3414_15_270.sng)

New Loadshape.SFO_37.8026_-122.3414_15_180 npts= 35040 interval=0.25 mult = (sngFile=../../../profiles/SFO_37.8026_-122.3414_15_180.sng)

New Loadshape.SFO_37.8026_-122.3414_25_270 npts= 35040 interval=0.25 mult = (sngFile=../../../profiles/SFO_37.8026_-122.3414_25_270.sng)

New Loadshape.SFO_37.8395_-122.3414_35_180 npts= 35040 interval=0.25 mult = (sngFile=../../../profiles/SFO_37.8395_-122.3414_35_180.sng)

New Loadshape.SFO_37.8395_-122.3414_25_90 npts= 35040 interval=0.25 mult = (sngFile=../../../profiles/SFO_37.8395_-122.3414_25_90.sng)

New Loadshape.SFO_37.8026_-122.3414_25_135 npts= 35040 interval=0.25 mult = (sngFile=../../../profiles/SFO_37.8026_-122.3414_25_135.sng)

New Loadshape.SFO_37.8026_-122.3414_45_180 npts= 35040 interval=0.25 mult = (sngFile=../../../profiles/SFO_37.8026_-122.3414_45_180.sng)

New Loadshape.SFO_37.8395_-122.3414_25_180 npts= 35040 interval=0.25 mult = (sngFile=../../../profiles/SFO_37.8395_-122.3414_25_180.sng)

New Loadshape.SFO_37.8395_-122.3414_15_135 npts= 35040 interval=0.25 mult = (sngFile=../../../profiles/SFO_37.8395_-122.3414_15_135.sng)

New Loadshape.SFO_37.8395_-122.3414_15_180 npts= 35040 interval=0.25 mult = (sngFile=../../../profiles/SFO_37.8395_-122.3414_15_180.sng)

New Loadshape.SFO_37.8395_-122.3414_25_225 npts= 35040 interval=0.25 mult = (sngFile=../../../profiles/SFO_37.8395_-122.3414_25_225.sng)

New Loadshape.SFO_37.8395_-122.3414_15_225 npts= 35040 interval=0.25 mult = (sngFile=../../../profiles/SFO_37.8395_-122.3414_15_225.sng)

New Loadshape.SFO_37.8026_-122.3414_25_225 npts= 35040 interval=0.25 mult = (sngFile=../../../profiles/SFO_37.8026_-122.3414_25_225.sng)

New Loadshape.SFO_37.8026_-122.3414_35_180 npts= 35040 interval=0.25 mult = (sngFile=../../../profiles/SFO_37.8026_-122.3414_35_180.sng)

New Loadshape.SFO_37.8026_-122.3414_15_225 npts= 35040 interval=0.25 mult = (sngFile=../../../profiles/SFO_37.8026_-122.3414_15_225.sng)

New Loadshape.SFO_37.8395_-122.3414_45_180 npts= 35040 interval=0.25 mult = (sngFile=../../../profiles/SFO_37.8395_-122.3414_45_180.sng)

New Loadshape.SFO_37.8395_-122.3414_35_270 npts= 35040 interval=0.25 mult = (sngFile=../../../profiles/SFO_37.8395_-122.3414_35_270.sng)

New Loadshape.SFO_37.8026_-122.3414_15_135 npts= 35040 interval=0.25 mult = (sngFile=../../../profiles/SFO_37.8026_-122.3414_15_135.sng)

New Loadshape.SFO_37.8395_-122.3414_35_135 npts= 35040 interval=0.25 mult = (sngFile=../../../profiles/SFO_37.8395_-122.3414_35_135.sng)

New Loadshape.SFO_37.8026_-122.3414_35_225 npts= 35040 interval=0.25 mult = (sngFile=../../../profiles/SFO_37.8026_-122.3414_35_225.sng)

New Loadshape.SFO_37.8395_-122.3414_35_90 npts= 35040 interval=0.25 mult = (sngFile=../../../profiles/SFO_37.8395_-122.3414_35_90.sng)

New Loadshape.SFO_37.8395_-122.3414_25_270 npts= 35040 interval=0.25 mult = (sngFile=../../../profiles/SFO_37.8395_-122.3414_25_270.sng)

New Loadshape.SFO_37.8026_-122.3414_15_90 npts= 35040 interval=0.25 mult = (sngFile=../../../profiles/SFO_37.8026_-122.3414_15_90.sng)

New Loadshape.SFO_37.8395_-122.3414_35_225 npts= 35040 interval=0.25 mult = (sngFile=../../../profiles/SFO_37.8395_-122.3414_35_225.sng)

New Loadshape.SFO_37.8395_-122.3414_45_135 npts= 35040 interval=0.25 mult = (sngFile=../../../profiles/SFO_37.8395_-122.3414_45_135.sng)

New Loadshape.SFO_37.8395_-122.3414_25_135 npts= 35040 interval=0.25 mult = (sngFile=../../../profiles/SFO_37.8395_-122.3414_25_135.sng)

New Loadshape.com_kw_41601_pu npts= 35040 interval=0.25 mult = (sngFile=../../../profiles/com_kw_41601_pu.sng) qmult = (sngFile=../../../profiles/com_kvar_41601_pu.sng)

New Loadshape.com_kw_41505_pu npts= 35040 interval=0.25 mult = (sngFile=../../../profiles/com_kw_41505_pu.sng) qmult = (sngFile=../../../profiles/com_kvar_41505_pu.sng)

New Loadshape.com_kw_39808_pu npts= 35040 interval=0.25 mult = (sngFile=../../../profiles/com_kw_39808_pu.sng) qmult = (sngFile=../../../profiles/com_kvar_39808_pu.sng)

New Loadshape.com_kw_17644_pu npts= 35040 interval=0.25 mult = (sngFile=../../../profiles/com_kw_17644_pu.sng) qmult = (sngFile=../../../profiles/com_kvar_17644_pu.sng)

New Loadshape.com_kw_28978_pu npts= 35040 interval=0.25 mult = (sngFile=../../../profiles/com_kw_28978_pu.sng) qmult = (sngFile=../../../profiles/com_kvar_28978_pu.sng)

New Loadshape.com_kw_19483_pu npts= 35040 interval=0.25 mult = (sngFile=../../../profiles/com_kw_19483_pu.sng) qmult = (sngFile=../../../profiles/com_kvar_19483_pu.sng)

New Loadshape.com_kw_1493_pu npts= 35040 interval=0.25 mult = (sngFile=../../../profiles/com_kw_1493_pu.sng) qmult = (sngFile=../../../profiles/com_kvar_1493_pu.sng)

New Loadshape.com_kw_34201_pu npts= 35040 interval=0.25 mult = (sngFile=../../../profiles/com_kw_34201_pu.sng) qmult = (sngFile=../../../profiles/com_kvar_34201_pu.sng)

New Loadshape.com_kw_41699_pu npts= 35040 interval=0.25 mult = (sngFile=../../../profiles/com_kw_41699_pu.sng) qmult = (sngFile=../../../profiles/com_kvar_41699_pu.sng)

New Loadshape.com_kw_41369_pu npts= 35040 interval=0.25 mult = (sngFile=../../../profiles/com_kw_41369_pu.sng) qmult = (sngFile=../../../profiles/com_kvar_41369_pu.sng)

New Loadshape.com_kw_35585_pu npts= 35040 interval=0.25 mult = (sngFile=../../../profiles/com_kw_35585_pu.sng) qmult = (sngFile=../../../profiles/com_kvar_35585_pu.sng)

New Loadshape.com_kw_19829_pu npts= 35040 interval=0.25 mult = (sngFile=../../../profiles/com_kw_19829_pu.sng) qmult = (sngFile=../../../profiles/com_kvar_19829_pu.sng)

New Loadshape.com_kw_17135_pu npts= 35040 interval=0.25 mult = (sngFile=../../../profiles/com_kw_17135_pu.sng) qmult = (sngFile=../../../profiles/com_kvar_17135_pu.sng)

New Loadshape.com_kw_33605_pu npts= 35040 interval=0.25 mult = (sngFile=../../../profiles/com_kw_33605_pu.sng) qmult = (sngFile=../../../profiles/com_kvar_33605_pu.sng)

New Loadshape.com_kw_8388_pu npts= 35040 interval=0.25 mult = (sngFile=../../../profiles/com_kw_8388_pu.sng) qmult = (sngFile=../../../profiles/com_kvar_8388_pu.sng)

New Loadshape.com_kw_34107_pu npts= 35040 interval=0.25 mult = (sngFile=../../../profiles/com_kw_34107_pu.sng) qmult = (sngFile=../../../profiles/com_kvar_34107_pu.sng)

New Loadshape.com_kw_41291_pu npts= 35040 interval=0.25 mult = (sngFile=../../../profiles/com_kw_41291_pu.sng) qmult = (sngFile=../../../profiles/com_kvar_41291_pu.sng)

New Loadshape.com_kw_17199_pu npts= 35040 interval=0.25 mult = (sngFile=../../../profiles/com_kw_17199_pu.sng) qmult = (sngFile=../../../profiles/com_kvar_17199_pu.sng)

New Loadshape.com_kw_40002_pu npts= 35040 interval=0.25 mult = (sngFile=../../../profiles/com_kw_40002_pu.sng) qmult = (sngFile=../../../profiles/com_kvar_40002_pu.sng)

New Loadshape.com_kw_2255_pu npts= 35040 interval=0.25 mult = (sngFile=../../../profiles/com_kw_2255_pu.sng) qmult = (sngFile=../../../profiles/com_kvar_2255_pu.sng)

New Loadshape.com_kw_31486_pu npts= 35040 interval=0.25 mult = (sngFile=../../../profiles/com_kw_31486_pu.sng) qmult = (sngFile=../../../profiles/com_kvar_31486_pu.sng)

New Loadshape.com_kw_35471_pu npts= 35040 interval=0.25 mult = (sngFile=../../../profiles/com_kw_35471_pu.sng) qmult = (sngFile=../../../profiles/com_kvar_35471_pu.sng)

New Loadshape.com_kw_29633_pu npts= 35040 interval=0.25 mult = (sngFile=../../../profiles/com_kw_29633_pu.sng) qmult = (sngFile=../../../profiles/com_kvar_29633_pu.sng)

New Loadshape.com_kw_16570_pu npts= 35040 interval=0.25 mult = (sngFile=../../../profiles/com_kw_16570_pu.sng) qmult = (sngFile=../../../profiles/com_kvar_16570_pu.sng)

New Loadshape.com_kw_8420_pu npts= 35040 interval=0.25 mult = (sngFile=../../../profiles/com_kw_8420_pu.sng) qmult = (sngFile=../../../profiles/com_kvar_8420_pu.sng)

New Loadshape.com_kw_18291_pu npts= 35040 interval=0.25 mult = (sngFile=../../../profiles/com_kw_18291_pu.sng) qmult = (sngFile=../../../profiles/com_kvar_18291_pu.sng)

New Loadshape.com_kw_29287_pu npts= 35040 interval=0.25 mult = (sngFile=../../../profiles/com_kw_29287_pu.sng) qmult = (sngFile=../../../profiles/com_kvar_29287_pu.sng)

New Loadshape.com_kw_2032_pu npts= 35040 interval=0.25 mult = (sngFile=../../../profiles/com_kw_2032_pu.sng) qmult = (sngFile=../../../profiles/com_kvar_2032_pu.sng)

New Loadshape.com_kw_19983_pu npts= 35040 interval=0.25 mult = (sngFile=../../../profiles/com_kw_19983_pu.sng) qmult = (sngFile=../../../profiles/com_kvar_19983_pu.sng)

New Loadshape.com_kw_19668_pu npts= 35040 interval=0.25 mult = (sngFile=../../../profiles/com_kw_19668_pu.sng) qmult = (sngFile=../../../profiles/com_kvar_19668_pu.sng)

New Loadshape.com_kw_39161_pu npts= 35040 interval=0.25 mult = (sngFile=../../../profiles/com_kw_39161_pu.sng) qmult = (sngFile=../../../profiles/com_kvar_39161_pu.sng)

New Loadshape.com_kw_16061_pu npts= 35040 interval=0.25 mult = (sngFile=../../../profiles/com_kw_16061_pu.sng) qmult = (sngFile=../../../profiles/com_kvar_16061_pu.sng)

New Loadshape.com_kw_22583_pu npts= 35040 interval=0.25 mult = (sngFile=../../../profiles/com_kw_22583_pu.sng) qmult = (sngFile=../../../profiles/com_kvar_22583_pu.sng)

New Loadshape.com_kw_29203_pu npts= 35040 interval=0.25 mult = (sngFile=../../../profiles/com_kw_29203_pu.sng) qmult = (sngFile=../../../profiles/com_kvar_29203_pu.sng)

New Loadshape.com_kw_29615_pu npts= 35040 interval=0.25 mult = (sngFile=../../../profiles/com_kw_29615_pu.sng) qmult = (sngFile=../../../profiles/com_kvar_29615_pu.sng)

New Loadshape.com_kw_39345_pu npts= 35040 interval=0.25 mult = (sngFile=../../../profiles/com_kw_39345_pu.sng) qmult = (sngFile=../../../profiles/com_kvar_39345_pu.sng)

New Loadshape.com_kw_18294_pu npts= 35040 interval=0.25 mult = (sngFile=../../../profiles/com_kw_18294_pu.sng) qmult = (sngFile=../../../profiles/com_kvar_18294_pu.sng)

New Loadshape.com_kw_39564_pu npts= 35040 interval=0.25 mult = (sngFile=../../../profiles/com_kw_39564_pu.sng) qmult = (sngFile=../../../profiles/com_kvar_39564_pu.sng)

New Loadshape.com_kw_39553_pu npts= 35040 interval=0.25 mult = (sngFile=../../../profiles/com_kw_39553_pu.sng) qmult = (sngFile=../../../profiles/com_kvar_39553_pu.sng)

New Loadshape.com_kw_22545_pu npts= 35040 interval=0.25 mult = (sngFile=../../../profiles/com_kw_22545_pu.sng) qmult = (sngFile=../../../profiles/com_kvar_22545_pu.sng)

New Loadshape.com_kw_16101_pu npts= 35040 interval=0.25 mult = (sngFile=../../../profiles/com_kw_16101_pu.sng) qmult = (sngFile=../../../profiles/com_kvar_16101_pu.sng)

New Loadshape.com_kw_39929_pu npts= 35040 interval=0.25 mult = (sngFile=../../../profiles/com_kw_39929_pu.sng) qmult = (sngFile=../../../profiles/com_kvar_39929_pu.sng)

New Loadshape.com_kw_16509_pu npts= 35040 interval=0.25 mult = (sngFile=../../../profiles/com_kw_16509_pu.sng) qmult = (sngFile=../../../profiles/com_kvar_16509_pu.sng)

New Loadshape.com_kw_2027_pu npts= 35040 interval=0.25 mult = (sngFile=../../../profiles/com_kw_2027_pu.sng) qmult = (sngFile=../../../profiles/com_kvar_2027_pu.sng)

New Loadshape.com_kw_41573_pu npts= 35040 interval=0.25 mult = (sngFile=../../../profiles/com_kw_41573_pu.sng) qmult = (sngFile=../../../profiles/com_kvar_41573_pu.sng)

New Loadshape.com_kw_2638_pu npts= 35040 interval=0.25 mult = (sngFile=../../../profiles/com_kw_2638_pu.sng) qmult = (sngFile=../../../profiles/com_kvar_2638_pu.sng)

New Loadshape.com_kw_1523_pu npts= 35040 interval=0.25 mult = (sngFile=../../../profiles/com_kw_1523_pu.sng) qmult = (sngFile=../../../profiles/com_kvar_1523_pu.sng)

New Loadshape.com_kw_2642_pu npts= 35040 interval=0.25 mult = (sngFile=../../../profiles/com_kw_2642_pu.sng) qmult = (sngFile=../../../profiles/com_kvar_2642_pu.sng)

New Loadshape.com_kw_8545_pu npts= 35040 interval=0.25 mult = (sngFile=../../../profiles/com_kw_8545_pu.sng) qmult = (sngFile=../../../profiles/com_kvar_8545_pu.sng)

New Loadshape.com_kw_19955_pu npts= 35040 interval=0.25 mult = (sngFile=../../../profiles/com_kw_19955_pu.sng) qmult = (sngFile=../../../profiles/com_kvar_19955_pu.sng)

New Loadshape.com_kw_17865_pu npts= 35040 interval=0.25 mult = (sngFile=../../../profiles/com_kw_17865_pu.sng) qmult = (sngFile=../../../profiles/com_kvar_17865_pu.sng)

New Loadshape.com_kw_39255_pu npts= 35040 interval=0.25 mult = (sngFile=../../../profiles/com_kw_39255_pu.sng) qmult = (sngFile=../../../profiles/com_kvar_39255_pu.sng)

New Loadshape.com_kw_33360_pu npts= 35040 interval=0.25 mult = (sngFile=../../../profiles/com_kw_33360_pu.sng) qmult = (sngFile=../../../profiles/com_kvar_33360_pu.sng)

New Loadshape.com_kw_41509_pu npts= 35040 interval=0.25 mult = (sngFile=../../../profiles/com_kw_41509_pu.sng) qmult = (sngFile=../../../profiles/com_kvar_41509_pu.sng)

New Loadshape.com_kw_35624_pu npts= 35040 interval=0.25 mult = (sngFile=../../../profiles/com_kw_35624_pu.sng) qmult = (sngFile=../../../profiles/com_kvar_35624_pu.sng)

New Loadshape.com_kw_41561_pu npts= 35040 interval=0.25 mult = (sngFile=../../../profiles/com_kw_41561_pu.sng) qmult = (sngFile=../../../profiles/com_kvar_41561_pu.sng)

New Loadshape.com_kw_29440_pu npts= 35040 interval=0.25 mult = (sngFile=../../../profiles/com_kw_29440_pu.sng) qmult = (sngFile=../../../profiles/com_kvar_29440_pu.sng)

New Loadshape.com_kw_2677_pu npts= 35040 interval=0.25 mult = (sngFile=../../../profiles/com_kw_2677_pu.sng) qmult = (sngFile=../../../profiles/com_kvar_2677_pu.sng)

New Loadshape.com_kw_15964_pu npts= 35040 interval=0.25 mult = (sngFile=../../../profiles/com_kw_15964_pu.sng) qmult = (sngFile=../../../profiles/com_kvar_15964_pu.sng)

New Loadshape.com_kw_39448_pu npts= 35040 interval=0.25 mult = (sngFile=../../../profiles/com_kw_39448_pu.sng) qmult = (sngFile=../../../profiles/com_kvar_39448_pu.sng)

New Loadshape.com_kw_41596_pu npts= 35040 interval=0.25 mult = (sngFile=../../../profiles/com_kw_41596_pu.sng) qmult = (sngFile=../../../profiles/com_kvar_41596_pu.sng)

New Loadshape.com_kw_18228_pu npts= 35040 interval=0.25 mult = (sngFile=../../../profiles/com_kw_18228_pu.sng) qmult = (sngFile=../../../profiles/com_kvar_18228_pu.sng)

New Loadshape.com_kw_2618_pu npts= 35040 interval=0.25 mult = (sngFile=../../../profiles/com_kw_2618_pu.sng) qmult = (sngFile=../../../profiles/com_kvar_2618_pu.sng)

New Loadshape.com_kw_17078_pu npts= 35040 interval=0.25 mult = (sngFile=../../../profiles/com_kw_17078_pu.sng) qmult = (sngFile=../../../profiles/com_kvar_17078_pu.sng)

New Loadshape.com_kw_33696_pu npts= 35040 interval=0.25 mult = (sngFile=../../../profiles/com_kw_33696_pu.sng) qmult = (sngFile=../../../profiles/com_kvar_33696_pu.sng)

New Loadshape.com_kw_29232_pu npts= 35040 interval=0.25 mult = (sngFile=../../../profiles/com_kw_29232_pu.sng) qmult = (sngFile=../../../profiles/com_kvar_29232_pu.sng)

New Loadshape.com_kw_1593_pu npts= 35040 interval=0.25 mult = (sngFile=../../../profiles/com_kw_1593_pu.sng) qmult = (sngFile=../../../profiles/com_kvar_1593_pu.sng)

New Loadshape.com_kw_16740_pu npts= 35040 interval=0.25 mult = (sngFile=../../../profiles/com_kw_16740_pu.sng) qmult = (sngFile=../../../profiles/com_kvar_16740_pu.sng)

New Loadshape.com_kw_34008_pu npts= 35040 interval=0.25 mult = (sngFile=../../../profiles/com_kw_34008_pu.sng) qmult = (sngFile=../../../profiles/com_kvar_34008_pu.sng)

New Loadshape.com_kw_34196_pu npts= 35040 interval=0.25 mult = (sngFile=../../../profiles/com_kw_34196_pu.sng) qmult = (sngFile=../../../profiles/com_kvar_34196_pu.sng)

New Loadshape.com_kw_19813_pu npts= 35040 interval=0.25 mult = (sngFile=../../../profiles/com_kw_19813_pu.sng) qmult = (sngFile=../../../profiles/com_kvar_19813_pu.sng)

New Loadshape.com_kw_2288_pu npts= 35040 interval=0.25 mult = (sngFile=../../../profiles/com_kw_2288_pu.sng) qmult = (sngFile=../../../profiles/com_kvar_2288_pu.sng)

New Loadshape.com_kw_33629_pu npts= 35040 interval=0.25 mult = (sngFile=../../../profiles/com_kw_33629_pu.sng) qmult = (sngFile=../../../profiles/com_kvar_33629_pu.sng)

New Loadshape.com_kw_31854_pu npts= 35040 interval=0.25 mult = (sngFile=../../../profiles/com_kw_31854_pu.sng) qmult = (sngFile=../../../profiles/com_kvar_31854_pu.sng)

New Loadshape.com_kw_1120_pu npts= 35040 interval=0.25 mult = (sngFile=../../../profiles/com_kw_1120_pu.sng) qmult = (sngFile=../../../profiles/com_kvar_1120_pu.sng)

New Loadshape.com_kw_31655_pu npts= 35040 interval=0.25 mult = (sngFile=../../../profiles/com_kw_31655_pu.sng) qmult = (sngFile=../../../profiles/com_kvar_31655_pu.sng)

New Loadshape.com_kw_34091_pu npts= 35040 interval=0.25 mult = (sngFile=../../../profiles/com_kw_34091_pu.sng) qmult = (sngFile=../../../profiles/com_kvar_34091_pu.sng)

New Loadshape.com_kw_39325_pu npts= 35040 interval=0.25 mult = (sngFile=../../../profiles/com_kw_39325_pu.sng) qmult = (sngFile=../../../profiles/com_kvar_39325_pu.sng)

New Loadshape.com_kw_20723_pu npts= 35040 interval=0.25 mult = (sngFile=../../../profiles/com_kw_20723_pu.sng) qmult = (sngFile=../../../profiles/com_kvar_20723_pu.sng)

New Loadshape.com_kw_1099_pu npts= 35040 interval=0.25 mult = (sngFile=../../../profiles/com_kw_1099_pu.sng) qmult = (sngFile=../../../profiles/com_kvar_1099_pu.sng)

New Loadshape.com_kw_41293_pu npts= 35040 interval=0.25 mult = (sngFile=../../../profiles/com_kw_41293_pu.sng) qmult = (sngFile=../../../profiles/com_kvar_41293_pu.sng)

New Loadshape.com_kw_2120_pu npts= 35040 interval=0.25 mult = (sngFile=../../../profiles/com_kw_2120_pu.sng) qmult = (sngFile=../../../profiles/com_kvar_2120_pu.sng)

New Loadshape.com_kw_19922_pu npts= 35040 interval=0.25 mult = (sngFile=../../../profiles/com_kw_19922_pu.sng) qmult = (sngFile=../../../profiles/com_kvar_19922_pu.sng)

New Loadshape.com_kw_41587_pu npts= 35040 interval=0.25 mult = (sngFile=../../../profiles/com_kw_41587_pu.sng) qmult = (sngFile=../../../profiles/com_kvar_41587_pu.sng)

New Loadshape.com_kw_16461_pu npts= 35040 interval=0.25 mult = (sngFile=../../../profiles/com_kw_16461_pu.sng) qmult = (sngFile=../../../profiles/com_kvar_16461_pu.sng)

New Loadshape.com_kw_2454_pu npts= 35040 interval=0.25 mult = (sngFile=../../../profiles/com_kw_2454_pu.sng) qmult = (sngFile=../../../profiles/com_kvar_2454_pu.sng)

New Loadshape.com_kw_1573_pu npts= 35040 interval=0.25 mult = (sngFile=../../../profiles/com_kw_1573_pu.sng) qmult = (sngFile=../../../profiles/com_kvar_1573_pu.sng)

New Loadshape.com_kw_31541_pu npts= 35040 interval=0.25 mult = (sngFile=../../../profiles/com_kw_31541_pu.sng) qmult = (sngFile=../../../profiles/com_kvar_31541_pu.sng)

New Loadshape.com_kw_2039_pu npts= 35040 interval=0.25 mult = (sngFile=../../../profiles/com_kw_2039_pu.sng) qmult = (sngFile=../../../profiles/com_kvar_2039_pu.sng)

New Loadshape.com_kw_29251_pu npts= 35040 interval=0.25 mult = (sngFile=../../../profiles/com_kw_29251_pu.sng) qmult = (sngFile=../../../profiles/com_kvar_29251_pu.sng)

New Loadshape.com_kw_15912_pu npts= 35040 interval=0.25 mult = (sngFile=../../../profiles/com_kw_15912_pu.sng) qmult = (sngFile=../../../profiles/com_kvar_15912_pu.sng)

