New Line.l(r:p13udt770lv-p13ulv38995) Units=km Length=0.014774100000000002 bus1=p13udt770lv.1.2 bus2=p13ulv38995.1.2 switch=n enabled=y phases=2 Linecode=1P_UG_AL_1/0_Brenau_2

New Line.l(r:p13udm3170-p13ulv2241) Units=km Length=0.011015 bus1=p13udm3170.1.2 bus2=p13ulv2241.1.2 switch=n enabled=y phases=2 Linecode=1P_UG_AL_4/0_Sweetbriar_2

New Line.l(r:p13udm3170-p13ulv39014) Units=km Length=0.0358575 bus1=p13udm3170.1.2 bus2=p13ulv39014.1.2 switch=n enabled=y phases=2 Linecode=1P_UG_AL_1/0_Brenau_2

New Line.l(r:p13udm3170-p13udt770lv) Units=km Length=0.00936426 bus1=p13udt770lv.1.2 bus2=p13udm3170.1.2 switch=n enabled=y phases=2 Linecode=1P_UG_AL_4/0_Sweetbriar_2

New Line.l(r:p13udt771lv-p13ulv38961) Units=km Length=0.00967481 bus1=p13udt771lv.1.2 bus2=p13ulv38961.1.2 switch=n enabled=y phases=2 Linecode=1P_UG_AL_1/0_Brenau_2

New Line.l(r:p13udm3173-p13ulv2243) Units=km Length=0.00930658 bus1=p13udm3173.1.2 bus2=p13ulv2243.1.2 switch=n enabled=y phases=2 Linecode=1P_UG_AL_4/0_Sweetbriar_2

New Line.l(r:p13udm3173-p13udt771lv) Units=km Length=0.00891871 bus1=p13udt771lv.1.2 bus2=p13udm3173.1.2 switch=n enabled=y phases=2 Linecode=1P_UG_AL_4/0_Sweetbriar_2

New Line.l(r:p13udt772lv-p13ulv38964) Units=km Length=0.0151518 bus1=p13udt772lv.1.2 bus2=p13ulv38964.1.2 switch=n enabled=y phases=2 Linecode=1P_UG_AL_2/0_Converse_2

New Line.l(r:p13udt772lv-p13ulv39001) Units=km Length=0.0145526 bus1=p13udt772lv.1.2 bus2=p13ulv39001.1.2 switch=n enabled=y phases=2 Linecode=1P_UG_AL_2/0_Converse_2

New Line.l(r:p13udm3175-p13ulv2244) Units=km Length=0.014576600000000002 bus1=p13udm3175.1.2 bus2=p13ulv2244.1.2 switch=n enabled=y phases=2 Linecode=1P_UG_AL_1/0_Brenau_2

New Line.l(r:p13udm3175-p13ulv39000) Units=km Length=0.011122200000000002 bus1=p13udm3175.1.2 bus2=p13ulv39000.1.2 switch=n enabled=y phases=2 Linecode=1P_UG_AL_1/0_Brenau_2

New Line.l(r:p13udm3175-p13udt772lv) Units=km Length=0.00989518 bus1=p13udt772lv.1.2 bus2=p13udm3175.1.2 switch=n enabled=y phases=2 Linecode=1P_UG_AL_4/0_Sweetbriar_2

New Line.l(r:p13udt786lv-p13ulv2266) Units=km Length=0.0124789 bus1=p13udt786lv.1.2 bus2=p13ulv2266.1.2 switch=n enabled=y phases=2 Linecode=1P_UG_AL_1/0_Brenau_2

New Line.l(r:p13udt786lv-p13ulv37695) Units=km Length=0.013073000000000001 bus1=p13udt786lv.1.2 bus2=p13ulv37695.1.2 switch=n enabled=y phases=2 Linecode=1P_UG_AL_1/0_Brenau_2

New Line.l(r:p13udm3214-p13ulv2267) Units=km Length=0.0146564 bus1=p13udm3214.1.2 bus2=p13ulv2267.1.2 switch=n enabled=y phases=2 Linecode=1P_UG_AL_1/0_Brenau_2

New Line.l(r:p13udm3214-p13udt786lv) Units=km Length=0.00955356 bus1=p13udt786lv.1.2 bus2=p13udm3214.1.2 switch=n enabled=y phases=2 Linecode=1P_UG_AL_1/0_Brenau_2

New Line.l(r:p13udm3217-p13ulv37707) Units=km Length=0.0123424 bus1=p13udm3217.1.2 bus2=p13ulv37707.1.2 switch=n enabled=y phases=2 Linecode=1P_UG_AL_1/0_Brenau_2

New Line.l(r:p13udm3217-p13ulv39010) Units=km Length=0.0128668 bus1=p13udm3217.1.2 bus2=p13ulv39010.1.2 switch=n enabled=y phases=2 Linecode=1P_UG_AL_1/0_Brenau_2

New Line.l(r:p13udm3216-p13ulv37706) Units=km Length=0.00846529 bus1=p13udm3216.1.2 bus2=p13ulv37706.1.2 switch=n enabled=y phases=2 Linecode=1P_UG_AL_1/0_Brenau_2

New Line.l(r:p13udm3216-p13udm3217) Units=km Length=0.00955356 bus1=p13udm3217.1.2 bus2=p13udm3216.1.2 switch=n enabled=y phases=2 Linecode=1P_UG_AL_1/0_Brenau_2

New Line.l(r:p13udm3217-p13udt786lv) Units=km Length=0.00956169 bus1=p13udt786lv.1.2 bus2=p13udm3217.1.2 switch=n enabled=y phases=2 Linecode=1P_UG_AL_4/0_Sweetbriar_2

New Line.l(r:p13udt787lv-p13ulv2269) Units=km Length=0.0113016 bus1=p13udt787lv.1.2 bus2=p13ulv2269.1.2 switch=n enabled=y phases=2 Linecode=1P_UG_AL_1/0_Brenau_2

New Line.l(r:p13udm3219-p13ulv2268) Units=km Length=0.0121948 bus1=p13udm3219.1.2 bus2=p13ulv2268.1.2 switch=n enabled=y phases=2 Linecode=1P_UG_AL_1/0_Brenau_2

New Line.l(r:p13udm3219-p13udt787lv) Units=km Length=0.00956169 bus1=p13udt787lv.1.2 bus2=p13udm3219.1.2 switch=n enabled=y phases=2 Linecode=1P_UG_AL_1/0_Brenau_2

New Line.l(r:p13udm3222-p13ulv37701) Units=km Length=0.0105775 bus1=p13udm3222.1.2 bus2=p13ulv37701.1.2 switch=n enabled=y phases=2 Linecode=1P_UG_AL_1/0_Brenau_2

New Line.l(r:p13udm3221-p13ulv2270) Units=km Length=0.0172004 bus1=p13udm3221.1.2 bus2=p13ulv2270.1.2 switch=n enabled=y phases=2 Linecode=1P_OH_AL_2/0_Rucina_2

New Line.l(r:p13udm3221-p13udm3222) Units=km Length=0.0459914 bus1=p13udm3222.1.2 bus2=p13udm3221.1.2 switch=n enabled=y phases=2 Linecode=1P_OH_AL_4/0_Zuzara_2

New Line.l(r:p13udm3222-p13udt787lv) Units=km Length=0.008843360000000001 bus1=p13udt787lv.1.2 bus2=p13udm3222.1.2 switch=n enabled=y phases=2 Linecode=1P_UG_AL_2/0_Converse_2

New Line.l(r:p13udt788lv-p13ulv2271) Units=km Length=0.0153147 bus1=p13udt788lv.1.2 bus2=p13ulv2271.1.2 switch=n enabled=y phases=2 Linecode=1P_OH_AL_2/0_Rucina_2

New Line.l(r:p13udt789lv-p13ulv2273) Units=km Length=0.0302699 bus1=p13udt789lv.1.2 bus2=p13ulv2273.1.2 switch=n enabled=y phases=2 Linecode=1P_UG_AL_1/0_Brenau_2

New Line.l(r:p13udt789lv-p13ulv38974) Units=km Length=0.0194117 bus1=p13udt789lv.1.2 bus2=p13ulv38974.1.2 switch=n enabled=y phases=2 Linecode=1P_UG_AL_1/0_Brenau_2

New Line.l(r:p13udm3224-p13ulv2272) Units=km Length=0.0102883 bus1=p13udm3224.1.2 bus2=p13ulv2272.1.2 switch=n enabled=y phases=2 Linecode=1P_UG_AL_1/0_Brenau_2

New Line.l(r:p13udm3224-p13ulv38988) Units=km Length=0.0126746 bus1=p13udm3224.1.2 bus2=p13ulv38988.1.2 switch=n enabled=y phases=2 Linecode=1P_UG_AL_1/0_Brenau_2

New Line.l(r:p13udm3224-p13udt789lv) Units=km Length=0.00937681 bus1=p13udt789lv.1.2 bus2=p13udm3224.1.2 switch=n enabled=y phases=2 Linecode=1P_UG_AL_1/0_Brenau_2

New Line.l(r:p13udm3227-p13ulv38971) Units=km Length=0.0139154 bus1=p13udm3227.1.2 bus2=p13ulv38971.1.2 switch=n enabled=y phases=2 Linecode=1P_UG_AL_1/0_Brenau_2

New Line.l(r:p13udm3226-p13ulv38965) Units=km Length=0.0262595 bus1=p13udm3226.1.2 bus2=p13ulv38965.1.2 switch=n enabled=y phases=2 Linecode=1P_UG_AL_1/0_Brenau_2

New Line.l(r:p13udm3226-p13udm3227) Units=km Length=0.00937681 bus1=p13udm3227.1.2 bus2=p13udm3226.1.2 switch=n enabled=y phases=2 Linecode=1P_UG_AL_1/0_Brenau_2

New Line.l(r:p13udm3227-p13udt789lv) Units=km Length=0.00937593 bus1=p13udt789lv.1.2 bus2=p13udm3227.1.2 switch=n enabled=y phases=2 Linecode=1P_UG_AL_4/0_Sweetbriar_2

New Line.l(r:p13udm3243-p13ulv2281) Units=km Length=0.0137671 bus1=p13udm3243.1.2 bus2=p13ulv2281.1.2 switch=n enabled=y phases=2 Linecode=1P_UG_AL_1/0_Brenau_2

New Line.l(r:p13udm3243-p13ulv38970) Units=km Length=0.0132805 bus1=p13udm3243.1.2 bus2=p13ulv38970.1.2 switch=n enabled=y phases=2 Linecode=1P_UG_AL_1/0_Brenau_2

New Line.l(r:p13udm3243-p13udt792lv) Units=km Length=0.0477659 bus1=p13udt792lv.1.2 bus2=p13udm3243.1.2 switch=n enabled=y phases=2 Linecode=1P_UG_AL_4/0_Sweetbriar_2

New Line.l(r:p13udm3247-p13ulv39007) Units=km Length=0.0133708 bus1=p13udm3247.1.2 bus2=p13ulv39007.1.2 switch=n enabled=y phases=2 Linecode=1P_UG_AL_1/0_Brenau_2

New Line.l(r:p13udm3247-p13ulv39015) Units=km Length=0.014815300000000002 bus1=p13udm3247.1.2 bus2=p13ulv39015.1.2 switch=n enabled=y phases=2 Linecode=1P_UG_AL_1/0_Brenau_2

New Line.l(r:p13udm3244-p13ulv37674) Units=km Length=0.0333757 bus1=p13udm3244.1.2 bus2=p13ulv37674.1.2 switch=n enabled=y phases=2 Linecode=1P_UG_AL_1/0_Brenau_2

New Line.l(r:p13udm3242-p13ulv2276) Units=km Length=0.0135201 bus1=p13udm3242.1.2 bus2=p13ulv2276.1.2 switch=n enabled=y phases=2 Linecode=1P_UG_AL_1/0_Brenau_2

New Line.l(r:p13udm3242-p13ulv37681) Units=km Length=0.012694 bus1=p13udm3242.1.2 bus2=p13ulv37681.1.2 switch=n enabled=y phases=2 Linecode=1P_UG_AL_1/0_Brenau_2

New Line.l(r:p13udm3242-p13udm3244) Units=km Length=0.009550630000000001 bus1=p13udm3244.1.2 bus2=p13udm3242.1.2 switch=n enabled=y phases=2 Linecode=1P_UG_AL_4/0_Sweetbriar_2

New Line.l(r:p13udm3244-p13udm3247) Units=km Length=0.00955155 bus1=p13udm3247.1.2 bus2=p13udm3244.1.2 switch=n enabled=y phases=2 Linecode=1P_UG_AL_4/0_Sweetbriar_2

New Line.l(r:p13udm3247-p13udt792lv) Units=km Length=0.009550630000000001 bus1=p13udt792lv.1.2 bus2=p13udm3247.1.2 switch=n enabled=y phases=2 Linecode=1P_UG_AL_4/0_Sweetbriar_2

New Line.l(r:p13udt793lv-p13ulv2277) Units=km Length=0.014311 bus1=p13udt793lv.1.2 bus2=p13ulv2277.1.2 switch=n enabled=y phases=2 Linecode=1P_UG_AL_1/0_Brenau_2

New Line.l(r:p13udm3250-p13ulv2278) Units=km Length=0.0156272 bus1=p13udm3250.1.2 bus2=p13ulv2278.1.2 switch=n enabled=y phases=2 Linecode=1P_UG_AL_1/0_Brenau_2

New Line.l(r:p13udm3252-p13ulv38996) Units=km Length=0.0168576 bus1=p13udm3252.1.2 bus2=p13ulv38996.1.2 switch=n enabled=y phases=2 Linecode=1P_UG_AL_1/0_Brenau_2

New Line.l(r:p13udm3252-p13ulv39004) Units=km Length=0.0150234 bus1=p13udm3252.1.2 bus2=p13ulv39004.1.2 switch=n enabled=y phases=2 Linecode=1P_UG_AL_1/0_Brenau_2

New Line.l(r:p13udm3250-p13udm3252) Units=km Length=0.00956151 bus1=p13udm3250.1.2 bus2=p13udm3252.1.2 switch=n enabled=y phases=2 Linecode=1P_UG_AL_2/0_Converse_2

New Line.l(r:p13udm3250-p13udt793lv) Units=km Length=0.009550630000000001 bus1=p13udt793lv.1.2 bus2=p13udm3250.1.2 switch=n enabled=y phases=2 Linecode=1P_UG_AL_4/0_Sweetbriar_2

New Line.l(r:p13udm3251-p13ulv38948) Units=km Length=0.0136587 bus1=p13udm3251.1.2 bus2=p13ulv38948.1.2 switch=n enabled=y phases=2 Linecode=1P_UG_AL_1/0_Brenau_2

New Line.l(r:p13udm3251-p13udt793lv) Units=km Length=0.0573174 bus1=p13udt793lv.1.2 bus2=p13udm3251.1.2 switch=n enabled=y phases=2 Linecode=1P_UG_AL_1/0_Brenau_2

New Line.l(r:p13udt794lv-p13ulv2352) Units=km Length=0.0146625 bus1=p13udt794lv.1.2 bus2=p13ulv2352.1.2 switch=n enabled=y phases=2 Linecode=1P_UG_AL_1/0_Brenau_2

New Line.l(r:p13udm3255-p13ulv2351) Units=km Length=0.0149547 bus1=p13udm3255.1.2 bus2=p13ulv2351.1.2 switch=n enabled=y phases=2 Linecode=1P_UG_AL_1/0_Brenau_2

New Line.l(r:p13udm3255-p13ulv38954) Units=km Length=0.0141612 bus1=p13udm3255.1.2 bus2=p13ulv38954.1.2 switch=n enabled=y phases=2 Linecode=1P_UG_AL_4/0_Sweetbriar_2

New Line.l(r:p13udm3254-p13ulv2279) Units=km Length=0.030822200000000004 bus1=p13udm3254.1.2 bus2=p13ulv2279.1.2 switch=n enabled=y phases=2 Linecode=1P_UG_AL_1/0_Brenau_2

New Line.l(r:p13udm3254-p13ulv2354) Units=km Length=0.015179500000000002 bus1=p13udm3254.1.2 bus2=p13ulv2354.1.2 switch=n enabled=y phases=2 Linecode=1P_UG_AL_1/0_Brenau_2

New Line.l(r:p13udm3254-p13udm3255) Units=km Length=0.00974713 bus1=p13udm3255.1.2 bus2=p13udm3254.1.2 switch=n enabled=y phases=2 Linecode=1P_UG_AL_1/0_Brenau_2

New Line.l(r:p13udm3255-p13udt794lv) Units=km Length=0.00974627 bus1=p13udt794lv.1.2 bus2=p13udm3255.1.2 switch=n enabled=y phases=2 Linecode=1P_UG_AL_4/0_Sweetbriar_2

New Line.l(r:p13udm3260-p13ulv39769) Units=km Length=0.00990721 bus1=p13udm3260.1.2 bus2=p13ulv39769.1.2 switch=n enabled=y phases=2 Linecode=1P_UG_AL_1/0_Brenau_2

New Line.l(r:p13udm3259-p13ulv39768) Units=km Length=0.0110983 bus1=p13udm3259.1.2 bus2=p13ulv39768.1.2 switch=n enabled=y phases=2 Linecode=1P_UG_AL_1/0_Brenau_2

New Line.l(r:p13udm3259-p13udm3260) Units=km Length=0.00926717 bus1=p13udm3260.1.2 bus2=p13udm3259.1.2 switch=n enabled=y phases=2 Linecode=1P_UG_AL_1/0_Brenau_2

New Line.l(r:p13udm3260-p13udt794lv) Units=km Length=0.050820000000000004 bus1=p13udt794lv.1.2 bus2=p13udm3260.1.2 switch=n enabled=y phases=2 Linecode=1P_UG_AL_1/0_Brenau_2

New Line.l(r:p13udt795lv-p13ulv38953) Units=km Length=0.0266762 bus1=p13udt795lv.1.2 bus2=p13ulv38953.1.2 switch=n enabled=y phases=2 Linecode=1P_UG_AL_2/0_Converse_2

New Line.l(r:p13udm3261-p13ulv2280) Units=km Length=0.0140275 bus1=p13udm3261.1.2 bus2=p13ulv2280.1.2 switch=n enabled=y phases=2 Linecode=1P_UG_AL_1/0_Brenau_2

New Line.l(r:p13udm3261-p13ulv38960) Units=km Length=0.0140523 bus1=p13udm3261.1.2 bus2=p13ulv38960.1.2 switch=n enabled=y phases=2 Linecode=1P_UG_AL_1/0_Brenau_2

New Line.l(r:p13udm3261-p13udt795lv) Units=km Length=0.009550630000000001 bus1=p13udt795lv.1.2 bus2=p13udm3261.1.2 switch=n enabled=y phases=2 Linecode=1P_UG_AL_2/0_Converse_2

New Line.l(r:p13udm3262-p13ulv38943) Units=km Length=0.0373837 bus1=p13udm3262.1.2 bus2=p13ulv38943.1.2 switch=n enabled=y phases=2 Linecode=1P_UG_AL_1/0_Brenau_2

New Line.l(r:p13udm3262-p13udt795lv) Units=km Length=0.00956151 bus1=p13udt795lv.1.2 bus2=p13udm3262.1.2 switch=n enabled=y phases=2 Linecode=1P_UG_AL_1/0_Brenau_2

New Line.l(r:p13udt796lv-p13ulv38975) Units=km Length=0.0131234 bus1=p13udt796lv.1.2 bus2=p13ulv38975.1.2 switch=n enabled=y phases=2 Linecode=1P_UG_AL_1/0_Brenau_2

New Line.l(r:p13udt796lv-p13ulv38977) Units=km Length=0.0146989 bus1=p13udt796lv.1.2 bus2=p13ulv38977.1.2 switch=n enabled=y phases=2 Linecode=1P_UG_AL_1/0_Brenau_2

New Line.l(r:p13udm3265-p13ulv2282) Units=km Length=0.0131804 bus1=p13udm3265.1.2 bus2=p13ulv2282.1.2 switch=n enabled=y phases=2 Linecode=1P_UG_AL_1/0_Brenau_2

New Line.l(r:p13udm3265-p13udt796lv) Units=km Length=0.00955155 bus1=p13udt796lv.1.2 bus2=p13udm3265.1.2 switch=n enabled=y phases=2 Linecode=1P_UG_AL_1/0_Brenau_2

New Line.l(r:p13udm3268-p13ulv38990) Units=km Length=0.0251014 bus1=p13udm3268.1.2 bus2=p13ulv38990.1.2 switch=n enabled=y phases=2 Linecode=1P_UG_AL_1/0_Brenau_2

New Line.l(r:p13udm3268-p13udt796lv) Units=km Length=0.00955155 bus1=p13udt796lv.1.2 bus2=p13udm3268.1.2 switch=n enabled=y phases=2 Linecode=1P_UG_AL_1/0_Brenau_2

New Line.l(r:p13udt818lv-p13ulv2316) Units=km Length=0.0135554 bus1=p13udt818lv.1.2 bus2=p13ulv2316.1.2 switch=n enabled=y phases=2 Linecode=1P_UG_AL_1/0_Brenau_2

New Line.l(r:p13udt818lv-p13ulv37762) Units=km Length=0.014004 bus1=p13udt818lv.1.2 bus2=p13ulv37762.1.2 switch=n enabled=y phases=2 Linecode=1P_UG_AL_1/0_Brenau_2

New Line.l(r:p13udm3370-p13ulv37747) Units=km Length=0.0132518 bus1=p13udm3370.1.2 bus2=p13ulv37747.1.2 switch=n enabled=y phases=2 Linecode=1P_UG_AL_1/0_Brenau_2

New Line.l(r:p13udm3370-p13udt818lv) Units=km Length=0.0194263 bus1=p13udt818lv.1.2 bus2=p13udm3370.1.2 switch=n enabled=y phases=2 Linecode=1P_UG_AL_1/0_Brenau_2

New Line.l(r:p13udt819lv-p13ulv2319) Units=km Length=0.0128526 bus1=p13udt819lv.1.2 bus2=p13ulv2319.1.2 switch=n enabled=y phases=2 Linecode=1P_UG_AL_1/0_Brenau_2

New Line.l(r:p13udt819lv-p13ulv37739) Units=km Length=0.0137854 bus1=p13udt819lv.1.2 bus2=p13ulv37739.1.2 switch=n enabled=y phases=2 Linecode=1P_UG_AL_1/0_Brenau_2

New Line.l(r:p13udm3373-p13ulv2318) Units=km Length=0.0112671 bus1=p13udm3373.1.2 bus2=p13ulv2318.1.2 switch=n enabled=y phases=2 Linecode=1P_UG_AL_1/0_Brenau_2

New Line.l(r:p13udm3372-p13ulv2317) Units=km Length=0.013097100000000002 bus1=p13udm3372.1.2 bus2=p13ulv2317.1.2 switch=n enabled=y phases=2 Linecode=1P_UG_AL_1/0_Brenau_2

New Line.l(r:p13udm3372-p13ulv37755) Units=km Length=0.0133855 bus1=p13udm3372.1.2 bus2=p13ulv37755.1.2 switch=n enabled=y phases=2 Linecode=1P_UG_AL_1/0_Brenau_2

New Line.l(r:p13udm3372-p13udm3373) Units=km Length=0.00971813 bus1=p13udm3373.1.2 bus2=p13udm3372.1.2 switch=n enabled=y phases=2 Linecode=1P_UG_AL_2/0_Converse_2

New Line.l(r:p13udm3373-p13udt819lv) Units=km Length=0.00971725 bus1=p13udt819lv.1.2 bus2=p13udm3373.1.2 switch=n enabled=y phases=2 Linecode=1P_UG_AL_4/0_Sweetbriar_2

New Line.l(r:p13udm3376-p13ulv37728) Units=km Length=0.0122068 bus1=p13udm3376.1.2 bus2=p13ulv37728.1.2 switch=n enabled=y phases=2 Linecode=1P_UG_AL_1/0_Brenau_2

New Line.l(r:p13udm3375-p13ulv37720) Units=km Length=0.012262 bus1=p13udm3375.1.2 bus2=p13ulv37720.1.2 switch=n enabled=y phases=2 Linecode=1P_UG_AL_1/0_Brenau_2

New Line.l(r:p13udm3375-p13udm3376) Units=km Length=0.00970817 bus1=p13udm3376.1.2 bus2=p13udm3375.1.2 switch=n enabled=y phases=2 Linecode=1P_UG_AL_1/0_Brenau_2

New Line.l(r:p13udm3376-p13udt819lv) Units=km Length=0.00971813 bus1=p13udt819lv.1.2 bus2=p13udm3376.1.2 switch=n enabled=y phases=2 Linecode=1P_UG_AL_4/0_Sweetbriar_2

New Line.l(r:p13udt820lv-p13ulv2320) Units=km Length=0.012243 bus1=p13udt820lv.1.2 bus2=p13ulv2320.1.2 switch=n enabled=y phases=2 Linecode=1P_UG_AL_1/0_Brenau_2

New Line.l(r:p13udt820lv-p13ulv37678) Units=km Length=0.0114867 bus1=p13udt820lv.1.2 bus2=p13ulv37678.1.2 switch=n enabled=y phases=2 Linecode=1P_UG_AL_1/0_Brenau_2

New Line.l(r:p13udm3381-p13ulv37683) Units=km Length=0.0102401 bus1=p13udm3381.1.2 bus2=p13ulv37683.1.2 switch=n enabled=y phases=2 Linecode=1P_UG_AL_1/0_Brenau_2

New Line.l(r:p13udm3383-p13ulv37716) Units=km Length=0.00945596 bus1=p13udm3383.1.2 bus2=p13ulv37716.1.2 switch=n enabled=y phases=2 Linecode=1P_UG_AL_1/0_Brenau_2

New Line.l(r:p13udm3381-p13udm3383) Units=km Length=0.009191630000000001 bus1=p13udm3381.1.2 bus2=p13udm3383.1.2 switch=n enabled=y phases=2 Linecode=1P_UG_AL_1/0_Brenau_2

New Line.l(r:p13udm3381-p13udt820lv) Units=km Length=0.009191630000000001 bus1=p13udt820lv.1.2 bus2=p13udm3381.1.2 switch=n enabled=y phases=2 Linecode=1P_UG_AL_1/0_Brenau_2

New Line.l(r:p13udm3382-p13ulv37684) Units=km Length=0.0117498 bus1=p13udm3382.1.2 bus2=p13ulv37684.1.2 switch=n enabled=y phases=2 Linecode=1P_UG_AL_1/0_Brenau_2

New Line.l(r:p13udm3384-p13ulv37722) Units=km Length=0.0108113 bus1=p13udm3384.1.2 bus2=p13ulv37722.1.2 switch=n enabled=y phases=2 Linecode=1P_UG_AL_1/0_Brenau_2

New Line.l(r:p13udm3382-p13udm3384) Units=km Length=0.009191630000000001 bus1=p13udm3382.1.2 bus2=p13udm3384.1.2 switch=n enabled=y phases=2 Linecode=1P_UG_AL_1/0_Brenau_2

New Line.l(r:p13udm3382-p13udt820lv) Units=km Length=0.00919332 bus1=p13udt820lv.1.2 bus2=p13udm3382.1.2 switch=n enabled=y phases=2 Linecode=1P_UG_AL_2/0_Converse_2

New Line.l(r:p13udt822lv-p13ulv38924) Units=km Length=0.0136229 bus1=p13udt822lv.1.2 bus2=p13ulv38924.1.2 switch=n enabled=y phases=2 Linecode=1P_UG_AL_1/0_Brenau_2

New Line.l(r:p13udm3389-p13ulv2322) Units=km Length=0.0141659 bus1=p13udm3389.1.2 bus2=p13ulv2322.1.2 switch=n enabled=y phases=2 Linecode=1P_UG_AL_1/0_Brenau_2

New Line.l(r:p13udm3389-p13ulv38949) Units=km Length=0.0121044 bus1=p13udm3389.1.2 bus2=p13ulv38949.1.2 switch=n enabled=y phases=2 Linecode=1P_UG_AL_4/0_Sweetbriar_2

New Line.l(r:p13udm3389-p13udt822lv) Units=km Length=0.00974979 bus1=p13udt822lv.1.2 bus2=p13udm3389.1.2 switch=n enabled=y phases=2 Linecode=1P_UG_AL_4/0_Sweetbriar_2

New Line.l(r:p13udt823lv-p13ulv38963) Units=km Length=0.0174806 bus1=p13udt823lv.1.2 bus2=p13ulv38963.1.2 switch=n enabled=y phases=2 Linecode=1P_UG_AL_1/0_Brenau_2

New Line.l(r:p13udm3392-p13ulv2323) Units=km Length=0.0132929 bus1=p13udm3392.1.2 bus2=p13ulv2323.1.2 switch=n enabled=y phases=2 Linecode=1P_UG_AL_2/0_Converse_2

New Line.l(r:p13udm3392-p13ulv38958) Units=km Length=0.0149528 bus1=p13udm3392.1.2 bus2=p13ulv38958.1.2 switch=n enabled=y phases=2 Linecode=1P_UG_AL_1/0_Brenau_2

New Line.l(r:p13udm3392-p13udt823lv) Units=km Length=0.009750700000000001 bus1=p13udt823lv.1.2 bus2=p13udm3392.1.2 switch=n enabled=y phases=2 Linecode=1P_UG_AL_4/0_Sweetbriar_2

New Line.l(r:p13udm3395-p13ulv38980) Units=km Length=0.014907200000000002 bus1=p13udm3395.1.2 bus2=p13ulv38980.1.2 switch=n enabled=y phases=2 Linecode=1P_UG_AL_2/0_Converse_2

New Line.l(r:p13udm3395-p13udt823lv) Units=km Length=0.0195095 bus1=p13udt823lv.1.2 bus2=p13udm3395.1.2 switch=n enabled=y phases=2 Linecode=1P_UG_AL_2/0_Converse_2

New Line.l(r:p13udt837lv-p13ulv2353) Units=km Length=0.0125028 bus1=p13udt837lv.1.2 bus2=p13ulv2353.1.2 switch=n enabled=y phases=2 Linecode=1P_UG_AL_1/0_Brenau_2

New Line.l(r:p13udt837lv-p13ulv38941) Units=km Length=0.0121699 bus1=p13udt837lv.1.2 bus2=p13ulv38941.1.2 switch=n enabled=y phases=2 Linecode=1P_UG_AL_1/0_Brenau_2

New Line.l(r:p13udt837lv-p13ulv39782) Units=km Length=0.0117386 bus1=p13udt837lv.1.2 bus2=p13ulv39782.1.2 switch=n enabled=y phases=2 Linecode=1P_UG_AL_1/0_Brenau_2

New Line.l(r:p13udm3468-p13ulv38950) Units=km Length=0.013636100000000002 bus1=p13udm3468.1.2 bus2=p13ulv38950.1.2 switch=n enabled=y phases=2 Linecode=1P_UG_AL_1/0_Brenau_2

New Line.l(r:p13udm3468-p13udt837lv) Units=km Length=0.00975709 bus1=p13udt837lv.1.2 bus2=p13udm3468.1.2 switch=n enabled=y phases=2 Linecode=1P_UG_AL_1/0_Brenau_2

New Line.l(r:p13udt904lv-p13ulv46462) Units=km Length=0.022615800000000002 bus1=p13udt904lv.1.2 bus2=p13ulv46462.1.2 switch=n enabled=y phases=2 Linecode=1P_OH_AL_2/0_Rucina_2

New Line.l(r:p13udm3840-p13ulv2591) Units=km Length=0.0146878 bus1=p13udm3840.1.2 bus2=p13ulv2591.1.2 switch=n enabled=y phases=2 Linecode=1P_OH_AL_2/0_Rucina_2

New Line.l(r:p13udm3840-p13udt904lv) Units=km Length=0.061012 bus1=p13udt904lv.1.2 bus2=p13udm3840.1.2 switch=n enabled=y phases=2 Linecode=1P_OH_AL_4/0_Zuzara_2

New Line.l(r:p13udm3843-p13ulv3229) Units=km Length=0.0112512 bus1=p13udm3843.1.2 bus2=p13ulv3229.1.2 switch=n enabled=y phases=2 Linecode=1P_OH_AL_2/0_Rucina_2

New Line.l(r:p13udm3842-p13ulv2592) Units=km Length=0.00897094 bus1=p13udm3842.1.2 bus2=p13ulv2592.1.2 switch=n enabled=y phases=2 Linecode=1P_OH_AL_2/0_Rucina_2

New Line.l(r:p13udm3842-p13udm3843) Units=km Length=0.011820300000000002 bus1=p13udm3843.1.2 bus2=p13udm3842.1.2 switch=n enabled=y phases=2 Linecode=1P_OH_AL_2/0_Rucina_2

New Line.l(r:p13udm3843-p13udt905lv) Units=km Length=0.0170271 bus1=p13udt905lv.1.2 bus2=p13udm3843.1.2 switch=n enabled=y phases=2 Linecode=1P_OH_AL_2/0_Rucina_2

New Line.l(r:p13udm3844-p13ulv42219) Units=km Length=0.0193483 bus1=p13udm3844.1.2 bus2=p13ulv42219.1.2 switch=n enabled=y phases=2 Linecode=1P_UG_AL_1/0_Brenau_2

New Line.l(r:p13udm3844-p13udt905lv) Units=km Length=0.0558014 bus1=p13udt905lv.1.2 bus2=p13udm3844.1.2 switch=n enabled=y phases=2 Linecode=1P_OH_AL_4/0_Zuzara_2

New Line.l(r:p13udt907lv-p13ulv44986) Units=km Length=0.00932481 bus1=p13udt907lv.1.2 bus2=p13ulv44986.1.2 switch=n enabled=y phases=2 Linecode=1P_OH_AL_2/0_Rucina_2

New Line.l(r:p13udm3847-p13ulv2594) Units=km Length=0.00838601 bus1=p13udm3847.1.2 bus2=p13ulv2594.1.2 switch=n enabled=y phases=2 Linecode=1P_UG_AL_4/0_Sweetbriar_2

New Line.l(r:p13udm3847-p13udt907lv) Units=km Length=0.052444 bus1=p13udt907lv.1.2 bus2=p13udm3847.1.2 switch=n enabled=y phases=2 Linecode=1P_OH_AL_4/0_Zuzara_2

New Line.l(r:p13udm3849-p13ulv44988) Units=km Length=0.00904615 bus1=p13udm3849.1.2 bus2=p13ulv44988.1.2 switch=n enabled=y phases=2 Linecode=1P_OH_AL_2/0_Rucina_2

New Line.l(r:p13udm3850-p13ulv44992) Units=km Length=0.013524300000000001 bus1=p13udm3850.1.2 bus2=p13ulv44992.1.2 switch=n enabled=y phases=2 Linecode=1P_OH_AL_2/0_Rucina_2

New Line.l(r:p13udm3850-p13ulv44996) Units=km Length=0.0215752 bus1=p13udm3850.1.2 bus2=p13ulv44996.1.2 switch=n enabled=y phases=2 Linecode=1P_OH_AL_2/0_Rucina_2

New Line.l(r:p13udm3849-p13udm3850) Units=km Length=0.0157664 bus1=p13udm3849.1.2 bus2=p13udm3850.1.2 switch=n enabled=y phases=2 Linecode=1P_OH_AL_2/0_Rucina_2

New Line.l(r:p13udm3849-p13udt907lv) Units=km Length=0.0148535 bus1=p13udt907lv.1.2 bus2=p13udm3849.1.2 switch=n enabled=y phases=2 Linecode=1P_OH_AL_2/0_Rucina_2

New Line.l(r:p13udm3851-p13ulv44995) Units=km Length=0.00927785 bus1=p13udm3851.1.2 bus2=p13ulv44995.1.2 switch=n enabled=y phases=2 Linecode=1P_UG_AL_1/0_Brenau_2

New Line.l(r:p13udm3851-p13udt907lv) Units=km Length=0.0439898 bus1=p13udt907lv.1.2 bus2=p13udm3851.1.2 switch=n enabled=y phases=2 Linecode=1P_OH_AL_4/0_Zuzara_2

New Line.l(r:p13udt908lv-p13ulv44969) Units=km Length=0.038271400000000004 bus1=p13udt908lv.1.2 bus2=p13ulv44969.1.2 switch=n enabled=y phases=2 Linecode=1P_UG_AL_1/0_Brenau_2

New Line.l(r:p13udt908lv-p13ulv44970) Units=km Length=0.00465568 bus1=p13udt908lv.1.2 bus2=p13ulv44970.1.2 switch=n enabled=y phases=2 Linecode=1P_UG_AL_1/0_Brenau_2

New Line.l(r:p13udt908lv-p13ulv44974) Units=km Length=0.0105093 bus1=p13udt908lv.1.2 bus2=p13ulv44974.1.2 switch=n enabled=y phases=2 Linecode=1P_UG_AL_1/0_Brenau_2

New Line.l(r:p13udm3853-p13ulv2595) Units=km Length=0.00793804 bus1=p13udm3853.1.2 bus2=p13ulv2595.1.2 switch=n enabled=y phases=2 Linecode=1P_UG_AL_1/0_Brenau_2

New Line.l(r:p13udm3853-p13udt908lv) Units=km Length=0.00654664 bus1=p13udt908lv.1.2 bus2=p13udm3853.1.2 switch=n enabled=y phases=2 Linecode=1P_UG_AL_1/0_Brenau_2

New Line.l(r:p13udm3858-p13ulv44990) Units=km Length=0.0117269 bus1=p13udm3858.1.2 bus2=p13ulv44990.1.2 switch=n enabled=y phases=2 Linecode=1P_UG_AL_1/0_Brenau_2

New Line.l(r:p13udm3857-p13ulv2596) Units=km Length=0.00523683 bus1=p13udm3857.1.2 bus2=p13ulv2596.1.2 switch=n enabled=y phases=2 Linecode=1P_UG_AL_1/0_Brenau_2

New Line.l(r:p13udm3857-p13udm3858) Units=km Length=0.0187557 bus1=p13udm3858.1.2 bus2=p13udm3857.1.2 switch=n enabled=y phases=2 Linecode=1P_UG_AL_1/0_Brenau_2

New Line.l(r:p13udm3858-p13udt909lv) Units=km Length=0.00923275 bus1=p13udt909lv.1.2 bus2=p13udm3858.1.2 switch=n enabled=y phases=2 Linecode=1P_UG_AL_2/0_Converse_2

New Line.l(r:p13udm3859-p13ulv44993) Units=km Length=0.0106296 bus1=p13udm3859.1.2 bus2=p13ulv44993.1.2 switch=n enabled=y phases=2 Linecode=1P_UG_AL_1/0_Brenau_2

New Line.l(r:p13udm3860-p13ulv44994) Units=km Length=0.0146896 bus1=p13udm3860.1.2 bus2=p13ulv44994.1.2 switch=n enabled=y phases=2 Linecode=1P_UG_AL_1/0_Brenau_2

New Line.l(r:p13udm3859-p13udm3860) Units=km Length=0.00923275 bus1=p13udm3859.1.2 bus2=p13udm3860.1.2 switch=n enabled=y phases=2 Linecode=1P_UG_AL_1/0_Brenau_2

New Line.l(r:p13udm3859-p13udt909lv) Units=km Length=0.009221200000000002 bus1=p13udt909lv.1.2 bus2=p13udm3859.1.2 switch=n enabled=y phases=2 Linecode=1P_UG_AL_2/0_Converse_2

New Line.l(r:p13udt910lv-p13ulv43506) Units=km Length=0.0130236 bus1=p13udt910lv.1.2 bus2=p13ulv43506.1.2 switch=n enabled=y phases=2 Linecode=1P_UG_AL_2/0_Converse_2

New Line.l(r:p13udm3862-p13ulv2607) Units=km Length=0.0152064 bus1=p13udm3862.1.2 bus2=p13ulv2607.1.2 switch=n enabled=y phases=2 Linecode=1P_UG_AL_1/0_Brenau_2

New Line.l(r:p13udm3861-p13ulv2597) Units=km Length=0.0157162 bus1=p13udm3861.1.2 bus2=p13ulv2597.1.2 switch=n enabled=y phases=2 Linecode=1P_UG_AL_1/0_Brenau_2

New Line.l(r:p13udm3861-p13ulv2609) Units=km Length=0.00854567 bus1=p13udm3861.1.2 bus2=p13ulv2609.1.2 switch=n enabled=y phases=2 Linecode=1P_UG_AL_1/0_Brenau_2

New Line.l(r:p13udm3861-p13udm3862) Units=km Length=0.00978019 bus1=p13udm3862.1.2 bus2=p13udm3861.1.2 switch=n enabled=y phases=2 Linecode=1P_UG_AL_4/0_Sweetbriar_2

New Line.l(r:p13udm3862-p13udt910lv) Units=km Length=0.00979005 bus1=p13udt910lv.1.2 bus2=p13udm3862.1.2 switch=n enabled=y phases=2 Linecode=1P_UG_AL_4/0_Sweetbriar_2

New Line.l(r:p13udm3865-p13ulv43554) Units=km Length=0.0110523 bus1=p13udm3865.1.2 bus2=p13ulv43554.1.2 switch=n enabled=y phases=2 Linecode=1P_UG_AL_1/0_Brenau_2

New Line.l(r:p13udm3866-p13ulv43556) Units=km Length=0.00954648 bus1=p13udm3866.1.2 bus2=p13ulv43556.1.2 switch=n enabled=y phases=2 Linecode=1P_UG_AL_1/0_Brenau_2

New Line.l(r:p13udm3867-p13ulv43562) Units=km Length=0.00886377 bus1=p13udm3867.1.2 bus2=p13ulv43562.1.2 switch=n enabled=y phases=2 Linecode=1P_UG_AL_1/0_Brenau_2

New Line.l(r:p13udm3866-p13udm3867) Units=km Length=0.017419 bus1=p13udm3866.1.2 bus2=p13udm3867.1.2 switch=n enabled=y phases=2 Linecode=1P_UG_AL_1/0_Brenau_2

New Line.l(r:p13udm3865-p13udm3866) Units=km Length=0.00979005 bus1=p13udm3865.1.2 bus2=p13udm3866.1.2 switch=n enabled=y phases=2 Linecode=1P_UG_AL_1/0_Brenau_2

New Line.l(r:p13udm3865-p13udt910lv) Units=km Length=0.00977851 bus1=p13udt910lv.1.2 bus2=p13udm3865.1.2 switch=n enabled=y phases=2 Linecode=1P_UG_AL_2/0_Converse_2

New Line.l(r:p13udt911lv-p13ulv2598) Units=km Length=0.0249412 bus1=p13udt911lv.1.2 bus2=p13ulv2598.1.2 switch=n enabled=y phases=2 Linecode=1P_UG_AL_1/0_Brenau_2

New Line.l(r:p13udt911lv-p13ulv2606) Units=km Length=0.0125096 bus1=p13udt911lv.1.2 bus2=p13ulv2606.1.2 switch=n enabled=y phases=2 Linecode=1P_UG_AL_1/0_Brenau_2

New Line.l(r:p13udm3869-p13ulv2599) Units=km Length=0.01568 bus1=p13udm3869.1.2 bus2=p13ulv2599.1.2 switch=n enabled=y phases=2 Linecode=1P_UG_AL_1/0_Brenau_2

New Line.l(r:p13udm3869-p13udt911lv) Units=km Length=0.0098512 bus1=p13udt911lv.1.2 bus2=p13udm3869.1.2 switch=n enabled=y phases=2 Linecode=1P_UG_AL_1/0_Brenau_2

New Line.l(r:p13udm3871-p13ulv2608) Units=km Length=0.0120625 bus1=p13udm3871.1.2 bus2=p13ulv2608.1.2 switch=n enabled=y phases=2 Linecode=1P_UG_AL_1/0_Brenau_2

New Line.l(r:p13udm3871-p13ulv43568) Units=km Length=0.0120114 bus1=p13udm3871.1.2 bus2=p13ulv43568.1.2 switch=n enabled=y phases=2 Linecode=1P_UG_AL_1/0_Brenau_2

New Line.l(r:p13udm3872-p13ulv43550) Units=km Length=0.011347 bus1=p13udm3872.1.2 bus2=p13ulv43550.1.2 switch=n enabled=y phases=2 Linecode=1P_UG_AL_1/0_Brenau_2

New Line.l(r:p13udm3871-p13udm3872) Units=km Length=0.0098512 bus1=p13udm3871.1.2 bus2=p13udm3872.1.2 switch=n enabled=y phases=2 Linecode=1P_UG_AL_1/0_Brenau_2

New Line.l(r:p13udm3871-p13udt911lv) Units=km Length=0.00986116 bus1=p13udt911lv.1.2 bus2=p13udm3871.1.2 switch=n enabled=y phases=2 Linecode=1P_UG_AL_2/0_Converse_2

New Line.l(r:p13udt912lv-p13ulv2602) Units=km Length=0.0143137 bus1=p13udt912lv.1.2 bus2=p13ulv2602.1.2 switch=n enabled=y phases=2 Linecode=1P_UG_AL_1/0_Brenau_2

New Line.l(r:p13udt912lv-p13ulv43628) Units=km Length=0.0127645 bus1=p13udt912lv.1.2 bus2=p13ulv43628.1.2 switch=n enabled=y phases=2 Linecode=1P_UG_AL_1/0_Brenau_2

New Line.l(r:p13udm3874-p13ulv2600) Units=km Length=0.0158012 bus1=p13udm3874.1.2 bus2=p13ulv2600.1.2 switch=n enabled=y phases=2 Linecode=1P_UG_AL_1/0_Brenau_2

New Line.l(r:p13udm3874-p13ulv43641) Units=km Length=0.0137537 bus1=p13udm3874.1.2 bus2=p13ulv43641.1.2 switch=n enabled=y phases=2 Linecode=1P_UG_AL_1/0_Brenau_2

New Line.l(r:p13udm3874-p13udt912lv) Units=km Length=0.0098512 bus1=p13udt912lv.1.2 bus2=p13udm3874.1.2 switch=n enabled=y phases=2 Linecode=1P_UG_AL_2/0_Converse_2

New Line.l(r:p13udm3876-p13ulv2603) Units=km Length=0.0130775 bus1=p13udm3876.1.2 bus2=p13ulv2603.1.2 switch=n enabled=y phases=2 Linecode=1P_UG_AL_1/0_Brenau_2

New Line.l(r:p13udm3876-p13ulv42223) Units=km Length=0.0198341 bus1=p13udm3876.1.2 bus2=p13ulv42223.1.2 switch=n enabled=y phases=2 Linecode=1P_UG_AL_1/0_Brenau_2
