New Loadshape.SFO_37.8764_-122.3414_15_180 npts=2016 interval=0.25 mult = (dblFile=../../../../../profiles/SFO_37.8764_-122.3414_15_180.sng)

New Loadshape.SFO_37.8764_-122.3414_25_180 npts=2016 interval=0.25 mult = (dblFile=../../../../../profiles/SFO_37.8764_-122.3414_25_180.sng)

New Loadshape.SFO_37.8764_-122.3414_25_225 npts=2016 interval=0.25 mult = (dblFile=../../../../../profiles/SFO_37.8764_-122.3414_25_225.sng)

New Loadshape.SFO_37.8764_-122.3414_35_135 npts=2016 interval=0.25 mult = (dblFile=../../../../../profiles/SFO_37.8764_-122.3414_35_135.sng)

New Loadshape.SFO_37.8764_-122.3414_15_90 npts=2016 interval=0.25 mult = (dblFile=../../../../../profiles/SFO_37.8764_-122.3414_15_90.sng)

New Loadshape.SFO_37.8764_-122.3414_35_180 npts=2016 interval=0.25 mult = (dblFile=../../../../../profiles/SFO_37.8764_-122.3414_35_180.sng)

New Loadshape.SFO_37.8764_-122.3414_15_135 npts=2016 interval=0.25 mult = (dblFile=../../../../../profiles/SFO_37.8764_-122.3414_15_135.sng)

New Loadshape.SFO_37.8764_-122.3414_25_270 npts=2016 interval=0.25 mult = (dblFile=../../../../../profiles/SFO_37.8764_-122.3414_25_270.sng)

New Loadshape.SFO_37.8764_-122.3414_45_225 npts=2016 interval=0.25 mult = (dblFile=../../../../../profiles/SFO_37.8764_-122.3414_45_225.sng)

New Loadshape.SFO_37.8764_-122.3414_45_270 npts=2016 interval=0.25 mult = (dblFile=../../../../../profiles/SFO_37.8764_-122.3414_45_270.sng)

New Loadshape.SFO_37.8764_-122.3414_25_135 npts=2016 interval=0.25 mult = (dblFile=../../../../../profiles/SFO_37.8764_-122.3414_25_135.sng)

New Loadshape.SFO_37.8764_-122.3414_15_225 npts=2016 interval=0.25 mult = (dblFile=../../../../../profiles/SFO_37.8764_-122.3414_15_225.sng)

New Loadshape.SFO_37.8764_-122.3414_35_90 npts=2016 interval=0.25 mult = (dblFile=../../../../../profiles/SFO_37.8764_-122.3414_35_90.sng)

New Loadshape.SFO_37.8764_-122.3414_35_225 npts=2016 interval=0.25 mult = (dblFile=../../../../../profiles/SFO_37.8764_-122.3414_35_225.sng)

New Loadshape.SFO_37.8764_-122.3414_25_90 npts=2016 interval=0.25 mult = (dblFile=../../../../../profiles/SFO_37.8764_-122.3414_25_90.sng)

New Loadshape.SFO_37.8764_-122.3414_35_270 npts=2016 interval=0.25 mult = (dblFile=../../../../../profiles/SFO_37.8764_-122.3414_35_270.sng)

New Loadshape.SFO_37.8764_-122.3414_15_270 npts=2016 interval=0.25 mult = (dblFile=../../../../../profiles/SFO_37.8764_-122.3414_15_270.sng)

New Loadshape.SFO_37.8764_-122.3414_45_135 npts=2016 interval=0.25 mult = (dblFile=../../../../../profiles/SFO_37.8764_-122.3414_45_135.sng)

New Loadshape.SFO_37.8764_-122.3414_45_180 npts=2016 interval=0.25 mult = (dblFile=../../../../../profiles/SFO_37.8764_-122.3414_45_180.sng)

New Loadshape.SFO_37.8764_-122.3414_45_90 npts=2016 interval=0.25 mult = (dblFile=../../../../../profiles/SFO_37.8764_-122.3414_45_90.sng)

New Loadshape.res_kw_8389_pu npts=2016 interval=0.25 mult = (dblFile=../../../../../profiles/res_kw_8389_pu.sng) qmult = (dblFile=../../../../../profiles/res_kvar_8389_pu.sng)

New Loadshape.res_kw_5634_pu npts=2016 interval=0.25 mult = (dblFile=../../../../../profiles/res_kw_5634_pu.sng) qmult = (dblFile=../../../../../profiles/res_kvar_5634_pu.sng)

New Loadshape.res_kw_11482_pu npts=2016 interval=0.25 mult = (dblFile=../../../../../profiles/res_kw_11482_pu.sng) qmult = (dblFile=../../../../../profiles/res_kvar_11482_pu.sng)

New Loadshape.res_kw_11695_pu npts=2016 interval=0.25 mult = (dblFile=../../../../../profiles/res_kw_11695_pu.sng) qmult = (dblFile=../../../../../profiles/res_kvar_11695_pu.sng)

New Loadshape.res_kw_7527_pu npts=2016 interval=0.25 mult = (dblFile=../../../../../profiles/res_kw_7527_pu.sng) qmult = (dblFile=../../../../../profiles/res_kvar_7527_pu.sng)

New Loadshape.res_kw_13906_pu npts=2016 interval=0.25 mult = (dblFile=../../../../../profiles/res_kw_13906_pu.sng) qmult = (dblFile=../../../../../profiles/res_kvar_13906_pu.sng)

New Loadshape.res_kw_1670_pu npts=2016 interval=0.25 mult = (dblFile=../../../../../profiles/res_kw_1670_pu.sng) qmult = (dblFile=../../../../../profiles/res_kvar_1670_pu.sng)

New Loadshape.res_kw_4813_pu npts=2016 interval=0.25 mult = (dblFile=../../../../../profiles/res_kw_4813_pu.sng) qmult = (dblFile=../../../../../profiles/res_kvar_4813_pu.sng)

New Loadshape.res_kw_14268_pu npts=2016 interval=0.25 mult = (dblFile=../../../../../profiles/res_kw_14268_pu.sng) qmult = (dblFile=../../../../../profiles/res_kvar_14268_pu.sng)

New Loadshape.res_kw_6375_pu npts=2016 interval=0.25 mult = (dblFile=../../../../../profiles/res_kw_6375_pu.sng) qmult = (dblFile=../../../../../profiles/res_kvar_6375_pu.sng)

New Loadshape.res_kw_3135_pu npts=2016 interval=0.25 mult = (dblFile=../../../../../profiles/res_kw_3135_pu.sng) qmult = (dblFile=../../../../../profiles/res_kvar_3135_pu.sng)

New Loadshape.res_kw_6730_pu npts=2016 interval=0.25 mult = (dblFile=../../../../../profiles/res_kw_6730_pu.sng) qmult = (dblFile=../../../../../profiles/res_kvar_6730_pu.sng)

New Loadshape.res_kw_10035_pu npts=2016 interval=0.25 mult = (dblFile=../../../../../profiles/res_kw_10035_pu.sng) qmult = (dblFile=../../../../../profiles/res_kvar_10035_pu.sng)

New Loadshape.res_kw_5685_pu npts=2016 interval=0.25 mult = (dblFile=../../../../../profiles/res_kw_5685_pu.sng) qmult = (dblFile=../../../../../profiles/res_kvar_5685_pu.sng)

New Loadshape.res_kw_6317_pu npts=2016 interval=0.25 mult = (dblFile=../../../../../profiles/res_kw_6317_pu.sng) qmult = (dblFile=../../../../../profiles/res_kvar_6317_pu.sng)

New Loadshape.res_kw_5095_pu npts=2016 interval=0.25 mult = (dblFile=../../../../../profiles/res_kw_5095_pu.sng) qmult = (dblFile=../../../../../profiles/res_kvar_5095_pu.sng)

New Loadshape.res_kw_3883_pu npts=2016 interval=0.25 mult = (dblFile=../../../../../profiles/res_kw_3883_pu.sng) qmult = (dblFile=../../../../../profiles/res_kvar_3883_pu.sng)

New Loadshape.res_kw_9776_pu npts=2016 interval=0.25 mult = (dblFile=../../../../../profiles/res_kw_9776_pu.sng) qmult = (dblFile=../../../../../profiles/res_kvar_9776_pu.sng)

New Loadshape.res_kw_14693_pu npts=2016 interval=0.25 mult = (dblFile=../../../../../profiles/res_kw_14693_pu.sng) qmult = (dblFile=../../../../../profiles/res_kvar_14693_pu.sng)

New Loadshape.res_kw_11218_pu npts=2016 interval=0.25 mult = (dblFile=../../../../../profiles/res_kw_11218_pu.sng) qmult = (dblFile=../../../../../profiles/res_kvar_11218_pu.sng)

New Loadshape.res_kw_7659_pu npts=2016 interval=0.25 mult = (dblFile=../../../../../profiles/res_kw_7659_pu.sng) qmult = (dblFile=../../../../../profiles/res_kvar_7659_pu.sng)

New Loadshape.res_kw_8466_pu npts=2016 interval=0.25 mult = (dblFile=../../../../../profiles/res_kw_8466_pu.sng) qmult = (dblFile=../../../../../profiles/res_kvar_8466_pu.sng)

New Loadshape.res_kw_10081_pu npts=2016 interval=0.25 mult = (dblFile=../../../../../profiles/res_kw_10081_pu.sng) qmult = (dblFile=../../../../../profiles/res_kvar_10081_pu.sng)

New Loadshape.res_kw_1418_pu npts=2016 interval=0.25 mult = (dblFile=../../../../../profiles/res_kw_1418_pu.sng) qmult = (dblFile=../../../../../profiles/res_kvar_1418_pu.sng)

New Loadshape.res_kw_1335_pu npts=2016 interval=0.25 mult = (dblFile=../../../../../profiles/res_kw_1335_pu.sng) qmult = (dblFile=../../../../../profiles/res_kvar_1335_pu.sng)

New Loadshape.res_kw_14152_pu npts=2016 interval=0.25 mult = (dblFile=../../../../../profiles/res_kw_14152_pu.sng) qmult = (dblFile=../../../../../profiles/res_kvar_14152_pu.sng)

New Loadshape.res_kw_13124_pu npts=2016 interval=0.25 mult = (dblFile=../../../../../profiles/res_kw_13124_pu.sng) qmult = (dblFile=../../../../../profiles/res_kvar_13124_pu.sng)

New Loadshape.res_kw_409_pu npts=2016 interval=0.25 mult = (dblFile=../../../../../profiles/res_kw_409_pu.sng) qmult = (dblFile=../../../../../profiles/res_kvar_409_pu.sng)

New Loadshape.res_kw_6455_pu npts=2016 interval=0.25 mult = (dblFile=../../../../../profiles/res_kw_6455_pu.sng) qmult = (dblFile=../../../../../profiles/res_kvar_6455_pu.sng)

New Loadshape.res_kw_6112_pu npts=2016 interval=0.25 mult = (dblFile=../../../../../profiles/res_kw_6112_pu.sng) qmult = (dblFile=../../../../../profiles/res_kvar_6112_pu.sng)

New Loadshape.res_kw_11257_pu npts=2016 interval=0.25 mult = (dblFile=../../../../../profiles/res_kw_11257_pu.sng) qmult = (dblFile=../../../../../profiles/res_kvar_11257_pu.sng)

New Loadshape.res_kw_11214_pu npts=2016 interval=0.25 mult = (dblFile=../../../../../profiles/res_kw_11214_pu.sng) qmult = (dblFile=../../../../../profiles/res_kvar_11214_pu.sng)

New Loadshape.res_kw_9346_pu npts=2016 interval=0.25 mult = (dblFile=../../../../../profiles/res_kw_9346_pu.sng) qmult = (dblFile=../../../../../profiles/res_kvar_9346_pu.sng)

New Loadshape.res_kw_10595_pu npts=2016 interval=0.25 mult = (dblFile=../../../../../profiles/res_kw_10595_pu.sng) qmult = (dblFile=../../../../../profiles/res_kvar_10595_pu.sng)

New Loadshape.res_kw_2437_pu npts=2016 interval=0.25 mult = (dblFile=../../../../../profiles/res_kw_2437_pu.sng) qmult = (dblFile=../../../../../profiles/res_kvar_2437_pu.sng)

New Loadshape.res_kw_9830_pu npts=2016 interval=0.25 mult = (dblFile=../../../../../profiles/res_kw_9830_pu.sng) qmult = (dblFile=../../../../../profiles/res_kvar_9830_pu.sng)

New Loadshape.res_kw_4545_pu npts=2016 interval=0.25 mult = (dblFile=../../../../../profiles/res_kw_4545_pu.sng) qmult = (dblFile=../../../../../profiles/res_kvar_4545_pu.sng)

New Loadshape.res_kw_5017_pu npts=2016 interval=0.25 mult = (dblFile=../../../../../profiles/res_kw_5017_pu.sng) qmult = (dblFile=../../../../../profiles/res_kvar_5017_pu.sng)

New Loadshape.res_kw_9225_pu npts=2016 interval=0.25 mult = (dblFile=../../../../../profiles/res_kw_9225_pu.sng) qmult = (dblFile=../../../../../profiles/res_kvar_9225_pu.sng)

New Loadshape.res_kw_3494_pu npts=2016 interval=0.25 mult = (dblFile=../../../../../profiles/res_kw_3494_pu.sng) qmult = (dblFile=../../../../../profiles/res_kvar_3494_pu.sng)

New Loadshape.res_kw_2149_pu npts=2016 interval=0.25 mult = (dblFile=../../../../../profiles/res_kw_2149_pu.sng) qmult = (dblFile=../../../../../profiles/res_kvar_2149_pu.sng)

New Loadshape.res_kw_7935_pu npts=2016 interval=0.25 mult = (dblFile=../../../../../profiles/res_kw_7935_pu.sng) qmult = (dblFile=../../../../../profiles/res_kvar_7935_pu.sng)

New Loadshape.res_kw_804_pu npts=2016 interval=0.25 mult = (dblFile=../../../../../profiles/res_kw_804_pu.sng) qmult = (dblFile=../../../../../profiles/res_kvar_804_pu.sng)

New Loadshape.res_kw_3387_pu npts=2016 interval=0.25 mult = (dblFile=../../../../../profiles/res_kw_3387_pu.sng) qmult = (dblFile=../../../../../profiles/res_kvar_3387_pu.sng)

New Loadshape.res_kw_12185_pu npts=2016 interval=0.25 mult = (dblFile=../../../../../profiles/res_kw_12185_pu.sng) qmult = (dblFile=../../../../../profiles/res_kvar_12185_pu.sng)

New Loadshape.res_kw_14672_pu npts=2016 interval=0.25 mult = (dblFile=../../../../../profiles/res_kw_14672_pu.sng) qmult = (dblFile=../../../../../profiles/res_kvar_14672_pu.sng)

New Loadshape.res_kw_2059_pu npts=2016 interval=0.25 mult = (dblFile=../../../../../profiles/res_kw_2059_pu.sng) qmult = (dblFile=../../../../../profiles/res_kvar_2059_pu.sng)

New Loadshape.res_kw_10361_pu npts=2016 interval=0.25 mult = (dblFile=../../../../../profiles/res_kw_10361_pu.sng) qmult = (dblFile=../../../../../profiles/res_kvar_10361_pu.sng)

New Loadshape.res_kw_933_pu npts=2016 interval=0.25 mult = (dblFile=../../../../../profiles/res_kw_933_pu.sng) qmult = (dblFile=../../../../../profiles/res_kvar_933_pu.sng)

New Loadshape.res_kw_12807_pu npts=2016 interval=0.25 mult = (dblFile=../../../../../profiles/res_kw_12807_pu.sng) qmult = (dblFile=../../../../../profiles/res_kvar_12807_pu.sng)

New Loadshape.res_kw_3243_pu npts=2016 interval=0.25 mult = (dblFile=../../../../../profiles/res_kw_3243_pu.sng) qmult = (dblFile=../../../../../profiles/res_kvar_3243_pu.sng)

New Loadshape.res_kw_6001_pu npts=2016 interval=0.25 mult = (dblFile=../../../../../profiles/res_kw_6001_pu.sng) qmult = (dblFile=../../../../../profiles/res_kvar_6001_pu.sng)

New Loadshape.res_kw_3830_pu npts=2016 interval=0.25 mult = (dblFile=../../../../../profiles/res_kw_3830_pu.sng) qmult = (dblFile=../../../../../profiles/res_kvar_3830_pu.sng)

New Loadshape.res_kw_4494_pu npts=2016 interval=0.25 mult = (dblFile=../../../../../profiles/res_kw_4494_pu.sng) qmult = (dblFile=../../../../../profiles/res_kvar_4494_pu.sng)

New Loadshape.res_kw_11410_pu npts=2016 interval=0.25 mult = (dblFile=../../../../../profiles/res_kw_11410_pu.sng) qmult = (dblFile=../../../../../profiles/res_kvar_11410_pu.sng)

New Loadshape.res_kw_2348_pu npts=2016 interval=0.25 mult = (dblFile=../../../../../profiles/res_kw_2348_pu.sng) qmult = (dblFile=../../../../../profiles/res_kvar_2348_pu.sng)

New Loadshape.res_kw_1187_pu npts=2016 interval=0.25 mult = (dblFile=../../../../../profiles/res_kw_1187_pu.sng) qmult = (dblFile=../../../../../profiles/res_kvar_1187_pu.sng)

New Loadshape.res_kw_6957_pu npts=2016 interval=0.25 mult = (dblFile=../../../../../profiles/res_kw_6957_pu.sng) qmult = (dblFile=../../../../../profiles/res_kvar_6957_pu.sng)

New Loadshape.res_kw_5282_pu npts=2016 interval=0.25 mult = (dblFile=../../../../../profiles/res_kw_5282_pu.sng) qmult = (dblFile=../../../../../profiles/res_kvar_5282_pu.sng)

New Loadshape.res_kw_4549_pu npts=2016 interval=0.25 mult = (dblFile=../../../../../profiles/res_kw_4549_pu.sng) qmult = (dblFile=../../../../../profiles/res_kvar_4549_pu.sng)

New Loadshape.res_kw_119_pu npts=2016 interval=0.25 mult = (dblFile=../../../../../profiles/res_kw_119_pu.sng) qmult = (dblFile=../../../../../profiles/res_kvar_119_pu.sng)

New Loadshape.res_kw_13581_pu npts=2016 interval=0.25 mult = (dblFile=../../../../../profiles/res_kw_13581_pu.sng) qmult = (dblFile=../../../../../profiles/res_kvar_13581_pu.sng)

New Loadshape.res_kw_946_pu npts=2016 interval=0.25 mult = (dblFile=../../../../../profiles/res_kw_946_pu.sng) qmult = (dblFile=../../../../../profiles/res_kvar_946_pu.sng)

New Loadshape.res_kw_9803_pu npts=2016 interval=0.25 mult = (dblFile=../../../../../profiles/res_kw_9803_pu.sng) qmult = (dblFile=../../../../../profiles/res_kvar_9803_pu.sng)

New Loadshape.res_kw_2295_pu npts=2016 interval=0.25 mult = (dblFile=../../../../../profiles/res_kw_2295_pu.sng) qmult = (dblFile=../../../../../profiles/res_kvar_2295_pu.sng)

New Loadshape.res_kw_10304_pu npts=2016 interval=0.25 mult = (dblFile=../../../../../profiles/res_kw_10304_pu.sng) qmult = (dblFile=../../../../../profiles/res_kvar_10304_pu.sng)

New Loadshape.res_kw_200_pu npts=2016 interval=0.25 mult = (dblFile=../../../../../profiles/res_kw_200_pu.sng) qmult = (dblFile=../../../../../profiles/res_kvar_200_pu.sng)

New Loadshape.res_kw_14302_pu npts=2016 interval=0.25 mult = (dblFile=../../../../../profiles/res_kw_14302_pu.sng) qmult = (dblFile=../../../../../profiles/res_kvar_14302_pu.sng)

New Loadshape.res_kw_13118_pu npts=2016 interval=0.25 mult = (dblFile=../../../../../profiles/res_kw_13118_pu.sng) qmult = (dblFile=../../../../../profiles/res_kvar_13118_pu.sng)

New Loadshape.res_kw_13393_pu npts=2016 interval=0.25 mult = (dblFile=../../../../../profiles/res_kw_13393_pu.sng) qmult = (dblFile=../../../../../profiles/res_kvar_13393_pu.sng)

New Loadshape.res_kw_14078_pu npts=2016 interval=0.25 mult = (dblFile=../../../../../profiles/res_kw_14078_pu.sng) qmult = (dblFile=../../../../../profiles/res_kvar_14078_pu.sng)

New Loadshape.res_kw_11551_pu npts=2016 interval=0.25 mult = (dblFile=../../../../../profiles/res_kw_11551_pu.sng) qmult = (dblFile=../../../../../profiles/res_kvar_11551_pu.sng)

New Loadshape.res_kw_14042_pu npts=2016 interval=0.25 mult = (dblFile=../../../../../profiles/res_kw_14042_pu.sng) qmult = (dblFile=../../../../../profiles/res_kvar_14042_pu.sng)

New Loadshape.res_kw_10989_pu npts=2016 interval=0.25 mult = (dblFile=../../../../../profiles/res_kw_10989_pu.sng) qmult = (dblFile=../../../../../profiles/res_kvar_10989_pu.sng)

New Loadshape.res_kw_3123_pu npts=2016 interval=0.25 mult = (dblFile=../../../../../profiles/res_kw_3123_pu.sng) qmult = (dblFile=../../../../../profiles/res_kvar_3123_pu.sng)

New Loadshape.res_kw_5327_pu npts=2016 interval=0.25 mult = (dblFile=../../../../../profiles/res_kw_5327_pu.sng) qmult = (dblFile=../../../../../profiles/res_kvar_5327_pu.sng)

New Loadshape.res_kw_5301_pu npts=2016 interval=0.25 mult = (dblFile=../../../../../profiles/res_kw_5301_pu.sng) qmult = (dblFile=../../../../../profiles/res_kvar_5301_pu.sng)

New Loadshape.res_kw_10888_pu npts=2016 interval=0.25 mult = (dblFile=../../../../../profiles/res_kw_10888_pu.sng) qmult = (dblFile=../../../../../profiles/res_kvar_10888_pu.sng)

New Loadshape.res_kw_11951_pu npts=2016 interval=0.25 mult = (dblFile=../../../../../profiles/res_kw_11951_pu.sng) qmult = (dblFile=../../../../../profiles/res_kvar_11951_pu.sng)

New Loadshape.res_kw_3091_pu npts=2016 interval=0.25 mult = (dblFile=../../../../../profiles/res_kw_3091_pu.sng) qmult = (dblFile=../../../../../profiles/res_kvar_3091_pu.sng)

New Loadshape.res_kw_11966_pu npts=2016 interval=0.25 mult = (dblFile=../../../../../profiles/res_kw_11966_pu.sng) qmult = (dblFile=../../../../../profiles/res_kvar_11966_pu.sng)

New Loadshape.res_kw_13760_pu npts=2016 interval=0.25 mult = (dblFile=../../../../../profiles/res_kw_13760_pu.sng) qmult = (dblFile=../../../../../profiles/res_kvar_13760_pu.sng)

New Loadshape.res_kw_3863_pu npts=2016 interval=0.25 mult = (dblFile=../../../../../profiles/res_kw_3863_pu.sng) qmult = (dblFile=../../../../../profiles/res_kvar_3863_pu.sng)

New Loadshape.res_kw_6895_pu npts=2016 interval=0.25 mult = (dblFile=../../../../../profiles/res_kw_6895_pu.sng) qmult = (dblFile=../../../../../profiles/res_kvar_6895_pu.sng)

New Loadshape.res_kw_1444_pu npts=2016 interval=0.25 mult = (dblFile=../../../../../profiles/res_kw_1444_pu.sng) qmult = (dblFile=../../../../../profiles/res_kvar_1444_pu.sng)

New Loadshape.res_kw_12082_pu npts=2016 interval=0.25 mult = (dblFile=../../../../../profiles/res_kw_12082_pu.sng) qmult = (dblFile=../../../../../profiles/res_kvar_12082_pu.sng)

New Loadshape.res_kw_2251_pu npts=2016 interval=0.25 mult = (dblFile=../../../../../profiles/res_kw_2251_pu.sng) qmult = (dblFile=../../../../../profiles/res_kvar_2251_pu.sng)

New Loadshape.res_kw_11800_pu npts=2016 interval=0.25 mult = (dblFile=../../../../../profiles/res_kw_11800_pu.sng) qmult = (dblFile=../../../../../profiles/res_kvar_11800_pu.sng)

New Loadshape.res_kw_12148_pu npts=2016 interval=0.25 mult = (dblFile=../../../../../profiles/res_kw_12148_pu.sng) qmult = (dblFile=../../../../../profiles/res_kvar_12148_pu.sng)

New Loadshape.res_kw_3993_pu npts=2016 interval=0.25 mult = (dblFile=../../../../../profiles/res_kw_3993_pu.sng) qmult = (dblFile=../../../../../profiles/res_kvar_3993_pu.sng)

New Loadshape.res_kw_6237_pu npts=2016 interval=0.25 mult = (dblFile=../../../../../profiles/res_kw_6237_pu.sng) qmult = (dblFile=../../../../../profiles/res_kvar_6237_pu.sng)

New Loadshape.res_kw_13705_pu npts=2016 interval=0.25 mult = (dblFile=../../../../../profiles/res_kw_13705_pu.sng) qmult = (dblFile=../../../../../profiles/res_kvar_13705_pu.sng)

New Loadshape.res_kw_712_pu npts=2016 interval=0.25 mult = (dblFile=../../../../../profiles/res_kw_712_pu.sng) qmult = (dblFile=../../../../../profiles/res_kvar_712_pu.sng)

New Loadshape.res_kw_10202_pu npts=2016 interval=0.25 mult = (dblFile=../../../../../profiles/res_kw_10202_pu.sng) qmult = (dblFile=../../../../../profiles/res_kvar_10202_pu.sng)

New Loadshape.res_kw_12189_pu npts=2016 interval=0.25 mult = (dblFile=../../../../../profiles/res_kw_12189_pu.sng) qmult = (dblFile=../../../../../profiles/res_kvar_12189_pu.sng)

New Loadshape.res_kw_14352_pu npts=2016 interval=0.25 mult = (dblFile=../../../../../profiles/res_kw_14352_pu.sng) qmult = (dblFile=../../../../../profiles/res_kvar_14352_pu.sng)

New Loadshape.res_kw_6784_pu npts=2016 interval=0.25 mult = (dblFile=../../../../../profiles/res_kw_6784_pu.sng) qmult = (dblFile=../../../../../profiles/res_kvar_6784_pu.sng)

New Loadshape.res_kw_1662_pu npts=2016 interval=0.25 mult = (dblFile=../../../../../profiles/res_kw_1662_pu.sng) qmult = (dblFile=../../../../../profiles/res_kvar_1662_pu.sng)

New Loadshape.res_kw_4692_pu npts=2016 interval=0.25 mult = (dblFile=../../../../../profiles/res_kw_4692_pu.sng) qmult = (dblFile=../../../../../profiles/res_kvar_4692_pu.sng)

New Loadshape.res_kw_4982_pu npts=2016 interval=0.25 mult = (dblFile=../../../../../profiles/res_kw_4982_pu.sng) qmult = (dblFile=../../../../../profiles/res_kvar_4982_pu.sng)

New Loadshape.res_kw_9152_pu npts=2016 interval=0.25 mult = (dblFile=../../../../../profiles/res_kw_9152_pu.sng) qmult = (dblFile=../../../../../profiles/res_kvar_9152_pu.sng)

New Loadshape.res_kw_501_pu npts=2016 interval=0.25 mult = (dblFile=../../../../../profiles/res_kw_501_pu.sng) qmult = (dblFile=../../../../../profiles/res_kvar_501_pu.sng)

New Loadshape.res_kw_13811_pu npts=2016 interval=0.25 mult = (dblFile=../../../../../profiles/res_kw_13811_pu.sng) qmult = (dblFile=../../../../../profiles/res_kvar_13811_pu.sng)

New Loadshape.res_kw_5307_pu npts=2016 interval=0.25 mult = (dblFile=../../../../../profiles/res_kw_5307_pu.sng) qmult = (dblFile=../../../../../profiles/res_kvar_5307_pu.sng)

New Loadshape.res_kw_5207_pu npts=2016 interval=0.25 mult = (dblFile=../../../../../profiles/res_kw_5207_pu.sng) qmult = (dblFile=../../../../../profiles/res_kvar_5207_pu.sng)

New Loadshape.res_kw_7043_pu npts=2016 interval=0.25 mult = (dblFile=../../../../../profiles/res_kw_7043_pu.sng) qmult = (dblFile=../../../../../profiles/res_kvar_7043_pu.sng)

New Loadshape.res_kw_12316_pu npts=2016 interval=0.25 mult = (dblFile=../../../../../profiles/res_kw_12316_pu.sng) qmult = (dblFile=../../../../../profiles/res_kvar_12316_pu.sng)

New Loadshape.res_kw_11424_pu npts=2016 interval=0.25 mult = (dblFile=../../../../../profiles/res_kw_11424_pu.sng) qmult = (dblFile=../../../../../profiles/res_kvar_11424_pu.sng)

New Loadshape.res_kw_9781_pu npts=2016 interval=0.25 mult = (dblFile=../../../../../profiles/res_kw_9781_pu.sng) qmult = (dblFile=../../../../../profiles/res_kvar_9781_pu.sng)

New Loadshape.res_kw_10756_pu npts=2016 interval=0.25 mult = (dblFile=../../../../../profiles/res_kw_10756_pu.sng) qmult = (dblFile=../../../../../profiles/res_kvar_10756_pu.sng)

New Loadshape.res_kw_14119_pu npts=2016 interval=0.25 mult = (dblFile=../../../../../profiles/res_kw_14119_pu.sng) qmult = (dblFile=../../../../../profiles/res_kvar_14119_pu.sng)

New Loadshape.res_kw_7757_pu npts=2016 interval=0.25 mult = (dblFile=../../../../../profiles/res_kw_7757_pu.sng) qmult = (dblFile=../../../../../profiles/res_kvar_7757_pu.sng)

New Loadshape.res_kw_1150_pu npts=2016 interval=0.25 mult = (dblFile=../../../../../profiles/res_kw_1150_pu.sng) qmult = (dblFile=../../../../../profiles/res_kvar_1150_pu.sng)

New Loadshape.res_kw_13287_pu npts=2016 interval=0.25 mult = (dblFile=../../../../../profiles/res_kw_13287_pu.sng) qmult = (dblFile=../../../../../profiles/res_kvar_13287_pu.sng)

New Loadshape.res_kw_4599_pu npts=2016 interval=0.25 mult = (dblFile=../../../../../profiles/res_kw_4599_pu.sng) qmult = (dblFile=../../../../../profiles/res_kvar_4599_pu.sng)

New Loadshape.res_kw_12216_pu npts=2016 interval=0.25 mult = (dblFile=../../../../../profiles/res_kw_12216_pu.sng) qmult = (dblFile=../../../../../profiles/res_kvar_12216_pu.sng)

New Loadshape.res_kw_10020_pu npts=2016 interval=0.25 mult = (dblFile=../../../../../profiles/res_kw_10020_pu.sng) qmult = (dblFile=../../../../../profiles/res_kvar_10020_pu.sng)

New Loadshape.res_kw_11404_pu npts=2016 interval=0.25 mult = (dblFile=../../../../../profiles/res_kw_11404_pu.sng) qmult = (dblFile=../../../../../profiles/res_kvar_11404_pu.sng)

New Loadshape.res_kw_6166_pu npts=2016 interval=0.25 mult = (dblFile=../../../../../profiles/res_kw_6166_pu.sng) qmult = (dblFile=../../../../../profiles/res_kvar_6166_pu.sng)

New Loadshape.res_kw_2957_pu npts=2016 interval=0.25 mult = (dblFile=../../../../../profiles/res_kw_2957_pu.sng) qmult = (dblFile=../../../../../profiles/res_kvar_2957_pu.sng)

New Loadshape.res_kw_1695_pu npts=2016 interval=0.25 mult = (dblFile=../../../../../profiles/res_kw_1695_pu.sng) qmult = (dblFile=../../../../../profiles/res_kvar_1695_pu.sng)

New Loadshape.res_kw_8859_pu npts=2016 interval=0.25 mult = (dblFile=../../../../../profiles/res_kw_8859_pu.sng) qmult = (dblFile=../../../../../profiles/res_kvar_8859_pu.sng)

New Loadshape.res_kw_2326_pu npts=2016 interval=0.25 mult = (dblFile=../../../../../profiles/res_kw_2326_pu.sng) qmult = (dblFile=../../../../../profiles/res_kvar_2326_pu.sng)

New Loadshape.res_kw_6222_pu npts=2016 interval=0.25 mult = (dblFile=../../../../../profiles/res_kw_6222_pu.sng) qmult = (dblFile=../../../../../profiles/res_kvar_6222_pu.sng)

New Loadshape.res_kw_7254_pu npts=2016 interval=0.25 mult = (dblFile=../../../../../profiles/res_kw_7254_pu.sng) qmult = (dblFile=../../../../../profiles/res_kvar_7254_pu.sng)

New Loadshape.res_kw_308_pu npts=2016 interval=0.25 mult = (dblFile=../../../../../profiles/res_kw_308_pu.sng) qmult = (dblFile=../../../../../profiles/res_kvar_308_pu.sng)

New Loadshape.res_kw_1983_pu npts=2016 interval=0.25 mult = (dblFile=../../../../../profiles/res_kw_1983_pu.sng) qmult = (dblFile=../../../../../profiles/res_kvar_1983_pu.sng)

New Loadshape.res_kw_1077_pu npts=2016 interval=0.25 mult = (dblFile=../../../../../profiles/res_kw_1077_pu.sng) qmult = (dblFile=../../../../../profiles/res_kvar_1077_pu.sng)

New Loadshape.res_kw_12702_pu npts=2016 interval=0.25 mult = (dblFile=../../../../../profiles/res_kw_12702_pu.sng) qmult = (dblFile=../../../../../profiles/res_kvar_12702_pu.sng)

New Loadshape.res_kw_13828_pu npts=2016 interval=0.25 mult = (dblFile=../../../../../profiles/res_kw_13828_pu.sng) qmult = (dblFile=../../../../../profiles/res_kvar_13828_pu.sng)

New Loadshape.res_kw_7882_pu npts=2016 interval=0.25 mult = (dblFile=../../../../../profiles/res_kw_7882_pu.sng) qmult = (dblFile=../../../../../profiles/res_kvar_7882_pu.sng)

New Loadshape.res_kw_221_pu npts=2016 interval=0.25 mult = (dblFile=../../../../../profiles/res_kw_221_pu.sng) qmult = (dblFile=../../../../../profiles/res_kvar_221_pu.sng)

New Loadshape.res_kw_3641_pu npts=2016 interval=0.25 mult = (dblFile=../../../../../profiles/res_kw_3641_pu.sng) qmult = (dblFile=../../../../../profiles/res_kvar_3641_pu.sng)

New Loadshape.res_kw_3252_pu npts=2016 interval=0.25 mult = (dblFile=../../../../../profiles/res_kw_3252_pu.sng) qmult = (dblFile=../../../../../profiles/res_kvar_3252_pu.sng)

New Loadshape.res_kw_7057_pu npts=2016 interval=0.25 mult = (dblFile=../../../../../profiles/res_kw_7057_pu.sng) qmult = (dblFile=../../../../../profiles/res_kvar_7057_pu.sng)

New Loadshape.res_kw_9324_pu npts=2016 interval=0.25 mult = (dblFile=../../../../../profiles/res_kw_9324_pu.sng) qmult = (dblFile=../../../../../profiles/res_kvar_9324_pu.sng)

New Loadshape.res_kw_4834_pu npts=2016 interval=0.25 mult = (dblFile=../../../../../profiles/res_kw_4834_pu.sng) qmult = (dblFile=../../../../../profiles/res_kvar_4834_pu.sng)

New Loadshape.res_kw_7957_pu npts=2016 interval=0.25 mult = (dblFile=../../../../../profiles/res_kw_7957_pu.sng) qmult = (dblFile=../../../../../profiles/res_kvar_7957_pu.sng)

New Loadshape.res_kw_10713_pu npts=2016 interval=0.25 mult = (dblFile=../../../../../profiles/res_kw_10713_pu.sng) qmult = (dblFile=../../../../../profiles/res_kvar_10713_pu.sng)

New Loadshape.res_kw_13511_pu npts=2016 interval=0.25 mult = (dblFile=../../../../../profiles/res_kw_13511_pu.sng) qmult = (dblFile=../../../../../profiles/res_kvar_13511_pu.sng)

New Loadshape.res_kw_10677_pu npts=2016 interval=0.25 mult = (dblFile=../../../../../profiles/res_kw_10677_pu.sng) qmult = (dblFile=../../../../../profiles/res_kvar_10677_pu.sng)

New Loadshape.res_kw_13123_pu npts=2016 interval=0.25 mult = (dblFile=../../../../../profiles/res_kw_13123_pu.sng) qmult = (dblFile=../../../../../profiles/res_kvar_13123_pu.sng)

New Loadshape.res_kw_74_pu npts=2016 interval=0.25 mult = (dblFile=../../../../../profiles/res_kw_74_pu.sng) qmult = (dblFile=../../../../../profiles/res_kvar_74_pu.sng)

New Loadshape.res_kw_4315_pu npts=2016 interval=0.25 mult = (dblFile=../../../../../profiles/res_kw_4315_pu.sng) qmult = (dblFile=../../../../../profiles/res_kvar_4315_pu.sng)

New Loadshape.res_kw_1191_pu npts=2016 interval=0.25 mult = (dblFile=../../../../../profiles/res_kw_1191_pu.sng) qmult = (dblFile=../../../../../profiles/res_kvar_1191_pu.sng)

New Loadshape.res_kw_7875_pu npts=2016 interval=0.25 mult = (dblFile=../../../../../profiles/res_kw_7875_pu.sng) qmult = (dblFile=../../../../../profiles/res_kvar_7875_pu.sng)

New Loadshape.res_kw_11283_pu npts=2016 interval=0.25 mult = (dblFile=../../../../../profiles/res_kw_11283_pu.sng) qmult = (dblFile=../../../../../profiles/res_kvar_11283_pu.sng)

New Loadshape.res_kw_8761_pu npts=2016 interval=0.25 mult = (dblFile=../../../../../profiles/res_kw_8761_pu.sng) qmult = (dblFile=../../../../../profiles/res_kvar_8761_pu.sng)

New Loadshape.res_kw_6510_pu npts=2016 interval=0.25 mult = (dblFile=../../../../../profiles/res_kw_6510_pu.sng) qmult = (dblFile=../../../../../profiles/res_kvar_6510_pu.sng)

New Loadshape.res_kw_6690_pu npts=2016 interval=0.25 mult = (dblFile=../../../../../profiles/res_kw_6690_pu.sng) qmult = (dblFile=../../../../../profiles/res_kvar_6690_pu.sng)

New Loadshape.res_kw_10492_pu npts=2016 interval=0.25 mult = (dblFile=../../../../../profiles/res_kw_10492_pu.sng) qmult = (dblFile=../../../../../profiles/res_kvar_10492_pu.sng)

New Loadshape.res_kw_13532_pu npts=2016 interval=0.25 mult = (dblFile=../../../../../profiles/res_kw_13532_pu.sng) qmult = (dblFile=../../../../../profiles/res_kvar_13532_pu.sng)
