New Loadshape.SFO_37.8764_-122.3414_15_180 npts=2016 interval=0.25 mult = (dblFile=../../../profiles/SFO_37.8764_-122.3414_15_180.sng)

New Loadshape.SFO_37.8764_-122.3414_25_180 npts=2016 interval=0.25 mult = (dblFile=../../../profiles/SFO_37.8764_-122.3414_25_180.sng)

New Loadshape.SFO_37.8764_-122.3414_25_225 npts=2016 interval=0.25 mult = (dblFile=../../../profiles/SFO_37.8764_-122.3414_25_225.sng)

New Loadshape.SFO_37.8764_-122.3414_35_135 npts=2016 interval=0.25 mult = (dblFile=../../../profiles/SFO_37.8764_-122.3414_35_135.sng)

New Loadshape.SFO_37.8764_-122.3414_15_90 npts=2016 interval=0.25 mult = (dblFile=../../../profiles/SFO_37.8764_-122.3414_15_90.sng)

New Loadshape.SFO_37.8764_-122.3414_35_180 npts=2016 interval=0.25 mult = (dblFile=../../../profiles/SFO_37.8764_-122.3414_35_180.sng)

New Loadshape.SFO_37.8764_-122.3414_15_135 npts=2016 interval=0.25 mult = (dblFile=../../../profiles/SFO_37.8764_-122.3414_15_135.sng)

New Loadshape.SFO_37.8764_-122.3414_25_270 npts=2016 interval=0.25 mult = (dblFile=../../../profiles/SFO_37.8764_-122.3414_25_270.sng)

New Loadshape.SFO_37.8764_-122.3414_45_225 npts=2016 interval=0.25 mult = (dblFile=../../../profiles/SFO_37.8764_-122.3414_45_225.sng)

New Loadshape.SFO_37.8764_-122.3414_45_270 npts=2016 interval=0.25 mult = (dblFile=../../../profiles/SFO_37.8764_-122.3414_45_270.sng)

New Loadshape.SFO_37.8764_-122.3414_25_135 npts=2016 interval=0.25 mult = (dblFile=../../../profiles/SFO_37.8764_-122.3414_25_135.sng)

New Loadshape.SFO_37.8764_-122.3414_15_225 npts=2016 interval=0.25 mult = (dblFile=../../../profiles/SFO_37.8764_-122.3414_15_225.sng)

New Loadshape.SFO_37.8764_-122.3414_35_90 npts=2016 interval=0.25 mult = (dblFile=../../../profiles/SFO_37.8764_-122.3414_35_90.sng)

New Loadshape.SFO_37.8764_-122.3414_35_225 npts=2016 interval=0.25 mult = (dblFile=../../../profiles/SFO_37.8764_-122.3414_35_225.sng)

New Loadshape.SFO_37.8764_-122.3414_25_90 npts=2016 interval=0.25 mult = (dblFile=../../../profiles/SFO_37.8764_-122.3414_25_90.sng)

New Loadshape.SFO_37.8764_-122.3414_35_270 npts=2016 interval=0.25 mult = (dblFile=../../../profiles/SFO_37.8764_-122.3414_35_270.sng)

New Loadshape.SFO_37.8764_-122.3414_15_270 npts=2016 interval=0.25 mult = (dblFile=../../../profiles/SFO_37.8764_-122.3414_15_270.sng)

New Loadshape.SFO_37.8764_-122.3414_45_135 npts=2016 interval=0.25 mult = (dblFile=../../../profiles/SFO_37.8764_-122.3414_45_135.sng)

New Loadshape.SFO_37.8764_-122.3414_45_180 npts=2016 interval=0.25 mult = (dblFile=../../../profiles/SFO_37.8764_-122.3414_45_180.sng)

New Loadshape.SFO_37.8764_-122.3414_45_90 npts=2016 interval=0.25 mult = (dblFile=../../../profiles/SFO_37.8764_-122.3414_45_90.sng)

New Loadshape.SFO_37.8764_-122.3414_55_180 npts=2016 interval=0.25 mult = (dblFile=../../../profiles/SFO_37.8764_-122.3414_55_180.sng)

New Loadshape.res_kw_7246_pu npts=2016 interval=0.25 mult = (dblFile=../../../profiles/res_kw_7246_pu.sng) qmult = (dblFile=../../../profiles/res_kvar_7246_pu.sng)

New Loadshape.res_kw_411_pu npts=2016 interval=0.25 mult = (dblFile=../../../profiles/res_kw_411_pu.sng) qmult = (dblFile=../../../profiles/res_kvar_411_pu.sng)

New Loadshape.res_kw_14016_pu npts=2016 interval=0.25 mult = (dblFile=../../../profiles/res_kw_14016_pu.sng) qmult = (dblFile=../../../profiles/res_kvar_14016_pu.sng)

New Loadshape.res_kw_8422_pu npts=2016 interval=0.25 mult = (dblFile=../../../profiles/res_kw_8422_pu.sng) qmult = (dblFile=../../../profiles/res_kvar_8422_pu.sng)

New Loadshape.res_kw_11483_pu npts=2016 interval=0.25 mult = (dblFile=../../../profiles/res_kw_11483_pu.sng) qmult = (dblFile=../../../profiles/res_kvar_11483_pu.sng)

New Loadshape.res_kw_6166_pu npts=2016 interval=0.25 mult = (dblFile=../../../profiles/res_kw_6166_pu.sng) qmult = (dblFile=../../../profiles/res_kvar_6166_pu.sng)

New Loadshape.res_kw_1335_pu npts=2016 interval=0.25 mult = (dblFile=../../../profiles/res_kw_1335_pu.sng) qmult = (dblFile=../../../profiles/res_kvar_1335_pu.sng)

New Loadshape.res_kw_8596_pu npts=2016 interval=0.25 mult = (dblFile=../../../profiles/res_kw_8596_pu.sng) qmult = (dblFile=../../../profiles/res_kvar_8596_pu.sng)

New Loadshape.res_kw_2822_pu npts=2016 interval=0.25 mult = (dblFile=../../../profiles/res_kw_2822_pu.sng) qmult = (dblFile=../../../profiles/res_kvar_2822_pu.sng)

New Loadshape.res_kw_9644_pu npts=2016 interval=0.25 mult = (dblFile=../../../profiles/res_kw_9644_pu.sng) qmult = (dblFile=../../../profiles/res_kvar_9644_pu.sng)

New Loadshape.res_kw_7551_pu npts=2016 interval=0.25 mult = (dblFile=../../../profiles/res_kw_7551_pu.sng) qmult = (dblFile=../../../profiles/res_kvar_7551_pu.sng)

New Loadshape.res_kw_5472_pu npts=2016 interval=0.25 mult = (dblFile=../../../profiles/res_kw_5472_pu.sng) qmult = (dblFile=../../../profiles/res_kvar_5472_pu.sng)

New Loadshape.res_kw_11106_pu npts=2016 interval=0.25 mult = (dblFile=../../../profiles/res_kw_11106_pu.sng) qmult = (dblFile=../../../profiles/res_kvar_11106_pu.sng)

New Loadshape.res_kw_9776_pu npts=2016 interval=0.25 mult = (dblFile=../../../profiles/res_kw_9776_pu.sng) qmult = (dblFile=../../../profiles/res_kvar_9776_pu.sng)

New Loadshape.res_kw_4516_pu npts=2016 interval=0.25 mult = (dblFile=../../../profiles/res_kw_4516_pu.sng) qmult = (dblFile=../../../profiles/res_kvar_4516_pu.sng)

New Loadshape.res_kw_15217_pu npts=2016 interval=0.25 mult = (dblFile=../../../profiles/res_kw_15217_pu.sng) qmult = (dblFile=../../../profiles/res_kvar_15217_pu.sng)

New Loadshape.res_kw_7055_pu npts=2016 interval=0.25 mult = (dblFile=../../../profiles/res_kw_7055_pu.sng) qmult = (dblFile=../../../profiles/res_kvar_7055_pu.sng)

New Loadshape.res_kw_940_pu npts=2016 interval=0.25 mult = (dblFile=../../../profiles/res_kw_940_pu.sng) qmult = (dblFile=../../../profiles/res_kvar_940_pu.sng)

New Loadshape.res_kw_10081_pu npts=2016 interval=0.25 mult = (dblFile=../../../profiles/res_kw_10081_pu.sng) qmult = (dblFile=../../../profiles/res_kvar_10081_pu.sng)

New Loadshape.res_kw_14086_pu npts=2016 interval=0.25 mult = (dblFile=../../../profiles/res_kw_14086_pu.sng) qmult = (dblFile=../../../profiles/res_kvar_14086_pu.sng)

New Loadshape.res_kw_2099_pu npts=2016 interval=0.25 mult = (dblFile=../../../profiles/res_kw_2099_pu.sng) qmult = (dblFile=../../../profiles/res_kvar_2099_pu.sng)

New Loadshape.res_kw_10492_pu npts=2016 interval=0.25 mult = (dblFile=../../../profiles/res_kw_10492_pu.sng) qmult = (dblFile=../../../profiles/res_kvar_10492_pu.sng)

New Loadshape.res_kw_2553_pu npts=2016 interval=0.25 mult = (dblFile=../../../profiles/res_kw_2553_pu.sng) qmult = (dblFile=../../../profiles/res_kvar_2553_pu.sng)

New Loadshape.res_kw_804_pu npts=2016 interval=0.25 mult = (dblFile=../../../profiles/res_kw_804_pu.sng) qmult = (dblFile=../../../profiles/res_kvar_804_pu.sng)

New Loadshape.res_kw_451_pu npts=2016 interval=0.25 mult = (dblFile=../../../profiles/res_kw_451_pu.sng) qmult = (dblFile=../../../profiles/res_kvar_451_pu.sng)

New Loadshape.res_kw_2053_pu npts=2016 interval=0.25 mult = (dblFile=../../../profiles/res_kw_2053_pu.sng) qmult = (dblFile=../../../profiles/res_kvar_2053_pu.sng)

New Loadshape.res_kw_12436_pu npts=2016 interval=0.25 mult = (dblFile=../../../profiles/res_kw_12436_pu.sng) qmult = (dblFile=../../../profiles/res_kvar_12436_pu.sng)

New Loadshape.res_kw_2859_pu npts=2016 interval=0.25 mult = (dblFile=../../../profiles/res_kw_2859_pu.sng) qmult = (dblFile=../../../profiles/res_kvar_2859_pu.sng)

New Loadshape.res_kw_4499_pu npts=2016 interval=0.25 mult = (dblFile=../../../profiles/res_kw_4499_pu.sng) qmult = (dblFile=../../../profiles/res_kvar_4499_pu.sng)

New Loadshape.res_kw_2372_pu npts=2016 interval=0.25 mult = (dblFile=../../../profiles/res_kw_2372_pu.sng) qmult = (dblFile=../../../profiles/res_kvar_2372_pu.sng)

New Loadshape.res_kw_3226_pu npts=2016 interval=0.25 mult = (dblFile=../../../profiles/res_kw_3226_pu.sng) qmult = (dblFile=../../../profiles/res_kvar_3226_pu.sng)

New Loadshape.res_kw_200_pu npts=2016 interval=0.25 mult = (dblFile=../../../profiles/res_kw_200_pu.sng) qmult = (dblFile=../../../profiles/res_kvar_200_pu.sng)

New Loadshape.res_kw_9804_pu npts=2016 interval=0.25 mult = (dblFile=../../../profiles/res_kw_9804_pu.sng) qmult = (dblFile=../../../profiles/res_kvar_9804_pu.sng)

New Loadshape.res_kw_5366_pu npts=2016 interval=0.25 mult = (dblFile=../../../profiles/res_kw_5366_pu.sng) qmult = (dblFile=../../../profiles/res_kvar_5366_pu.sng)

New Loadshape.res_kw_11950_pu npts=2016 interval=0.25 mult = (dblFile=../../../profiles/res_kw_11950_pu.sng) qmult = (dblFile=../../../profiles/res_kvar_11950_pu.sng)

New Loadshape.res_kw_8249_pu npts=2016 interval=0.25 mult = (dblFile=../../../profiles/res_kw_8249_pu.sng) qmult = (dblFile=../../../profiles/res_kvar_8249_pu.sng)

New Loadshape.res_kw_501_pu npts=2016 interval=0.25 mult = (dblFile=../../../profiles/res_kw_501_pu.sng) qmult = (dblFile=../../../profiles/res_kvar_501_pu.sng)

New Loadshape.res_kw_7023_pu npts=2016 interval=0.25 mult = (dblFile=../../../profiles/res_kw_7023_pu.sng) qmult = (dblFile=../../../profiles/res_kvar_7023_pu.sng)

New Loadshape.res_kw_7222_pu npts=2016 interval=0.25 mult = (dblFile=../../../profiles/res_kw_7222_pu.sng) qmult = (dblFile=../../../profiles/res_kvar_7222_pu.sng)

New Loadshape.res_kw_8369_pu npts=2016 interval=0.25 mult = (dblFile=../../../profiles/res_kw_8369_pu.sng) qmult = (dblFile=../../../profiles/res_kvar_8369_pu.sng)

New Loadshape.res_kw_10108_pu npts=2016 interval=0.25 mult = (dblFile=../../../profiles/res_kw_10108_pu.sng) qmult = (dblFile=../../../profiles/res_kvar_10108_pu.sng)

New Loadshape.res_kw_13866_pu npts=2016 interval=0.25 mult = (dblFile=../../../profiles/res_kw_13866_pu.sng) qmult = (dblFile=../../../profiles/res_kvar_13866_pu.sng)

New Loadshape.res_kw_8389_pu npts=2016 interval=0.25 mult = (dblFile=../../../profiles/res_kw_8389_pu.sng) qmult = (dblFile=../../../profiles/res_kvar_8389_pu.sng)

New Loadshape.res_kw_5634_pu npts=2016 interval=0.25 mult = (dblFile=../../../profiles/res_kw_5634_pu.sng) qmult = (dblFile=../../../profiles/res_kvar_5634_pu.sng)

New Loadshape.res_kw_11482_pu npts=2016 interval=0.25 mult = (dblFile=../../../profiles/res_kw_11482_pu.sng) qmult = (dblFile=../../../profiles/res_kvar_11482_pu.sng)

New Loadshape.res_kw_11695_pu npts=2016 interval=0.25 mult = (dblFile=../../../profiles/res_kw_11695_pu.sng) qmult = (dblFile=../../../profiles/res_kvar_11695_pu.sng)

New Loadshape.res_kw_7527_pu npts=2016 interval=0.25 mult = (dblFile=../../../profiles/res_kw_7527_pu.sng) qmult = (dblFile=../../../profiles/res_kvar_7527_pu.sng)

New Loadshape.res_kw_13906_pu npts=2016 interval=0.25 mult = (dblFile=../../../profiles/res_kw_13906_pu.sng) qmult = (dblFile=../../../profiles/res_kvar_13906_pu.sng)

New Loadshape.res_kw_1670_pu npts=2016 interval=0.25 mult = (dblFile=../../../profiles/res_kw_1670_pu.sng) qmult = (dblFile=../../../profiles/res_kvar_1670_pu.sng)

New Loadshape.res_kw_4813_pu npts=2016 interval=0.25 mult = (dblFile=../../../profiles/res_kw_4813_pu.sng) qmult = (dblFile=../../../profiles/res_kvar_4813_pu.sng)

New Loadshape.res_kw_14268_pu npts=2016 interval=0.25 mult = (dblFile=../../../profiles/res_kw_14268_pu.sng) qmult = (dblFile=../../../profiles/res_kvar_14268_pu.sng)

New Loadshape.res_kw_6375_pu npts=2016 interval=0.25 mult = (dblFile=../../../profiles/res_kw_6375_pu.sng) qmult = (dblFile=../../../profiles/res_kvar_6375_pu.sng)

New Loadshape.res_kw_3135_pu npts=2016 interval=0.25 mult = (dblFile=../../../profiles/res_kw_3135_pu.sng) qmult = (dblFile=../../../profiles/res_kvar_3135_pu.sng)

New Loadshape.res_kw_6730_pu npts=2016 interval=0.25 mult = (dblFile=../../../profiles/res_kw_6730_pu.sng) qmult = (dblFile=../../../profiles/res_kvar_6730_pu.sng)

New Loadshape.res_kw_10035_pu npts=2016 interval=0.25 mult = (dblFile=../../../profiles/res_kw_10035_pu.sng) qmult = (dblFile=../../../profiles/res_kvar_10035_pu.sng)

New Loadshape.res_kw_5685_pu npts=2016 interval=0.25 mult = (dblFile=../../../profiles/res_kw_5685_pu.sng) qmult = (dblFile=../../../profiles/res_kvar_5685_pu.sng)

New Loadshape.res_kw_6317_pu npts=2016 interval=0.25 mult = (dblFile=../../../profiles/res_kw_6317_pu.sng) qmult = (dblFile=../../../profiles/res_kvar_6317_pu.sng)

New Loadshape.res_kw_5095_pu npts=2016 interval=0.25 mult = (dblFile=../../../profiles/res_kw_5095_pu.sng) qmult = (dblFile=../../../profiles/res_kvar_5095_pu.sng)

New Loadshape.res_kw_3883_pu npts=2016 interval=0.25 mult = (dblFile=../../../profiles/res_kw_3883_pu.sng) qmult = (dblFile=../../../profiles/res_kvar_3883_pu.sng)

New Loadshape.res_kw_14693_pu npts=2016 interval=0.25 mult = (dblFile=../../../profiles/res_kw_14693_pu.sng) qmult = (dblFile=../../../profiles/res_kvar_14693_pu.sng)

New Loadshape.res_kw_11218_pu npts=2016 interval=0.25 mult = (dblFile=../../../profiles/res_kw_11218_pu.sng) qmult = (dblFile=../../../profiles/res_kvar_11218_pu.sng)

New Loadshape.res_kw_7659_pu npts=2016 interval=0.25 mult = (dblFile=../../../profiles/res_kw_7659_pu.sng) qmult = (dblFile=../../../profiles/res_kvar_7659_pu.sng)

New Loadshape.res_kw_8466_pu npts=2016 interval=0.25 mult = (dblFile=../../../profiles/res_kw_8466_pu.sng) qmult = (dblFile=../../../profiles/res_kvar_8466_pu.sng)

New Loadshape.res_kw_1418_pu npts=2016 interval=0.25 mult = (dblFile=../../../profiles/res_kw_1418_pu.sng) qmult = (dblFile=../../../profiles/res_kvar_1418_pu.sng)

New Loadshape.res_kw_14152_pu npts=2016 interval=0.25 mult = (dblFile=../../../profiles/res_kw_14152_pu.sng) qmult = (dblFile=../../../profiles/res_kvar_14152_pu.sng)

New Loadshape.res_kw_13124_pu npts=2016 interval=0.25 mult = (dblFile=../../../profiles/res_kw_13124_pu.sng) qmult = (dblFile=../../../profiles/res_kvar_13124_pu.sng)

New Loadshape.res_kw_409_pu npts=2016 interval=0.25 mult = (dblFile=../../../profiles/res_kw_409_pu.sng) qmult = (dblFile=../../../profiles/res_kvar_409_pu.sng)

New Loadshape.res_kw_6455_pu npts=2016 interval=0.25 mult = (dblFile=../../../profiles/res_kw_6455_pu.sng) qmult = (dblFile=../../../profiles/res_kvar_6455_pu.sng)

New Loadshape.res_kw_6112_pu npts=2016 interval=0.25 mult = (dblFile=../../../profiles/res_kw_6112_pu.sng) qmult = (dblFile=../../../profiles/res_kvar_6112_pu.sng)

New Loadshape.res_kw_11257_pu npts=2016 interval=0.25 mult = (dblFile=../../../profiles/res_kw_11257_pu.sng) qmult = (dblFile=../../../profiles/res_kvar_11257_pu.sng)

New Loadshape.res_kw_11214_pu npts=2016 interval=0.25 mult = (dblFile=../../../profiles/res_kw_11214_pu.sng) qmult = (dblFile=../../../profiles/res_kvar_11214_pu.sng)

New Loadshape.res_kw_9346_pu npts=2016 interval=0.25 mult = (dblFile=../../../profiles/res_kw_9346_pu.sng) qmult = (dblFile=../../../profiles/res_kvar_9346_pu.sng)

New Loadshape.res_kw_10595_pu npts=2016 interval=0.25 mult = (dblFile=../../../profiles/res_kw_10595_pu.sng) qmult = (dblFile=../../../profiles/res_kvar_10595_pu.sng)

New Loadshape.res_kw_2437_pu npts=2016 interval=0.25 mult = (dblFile=../../../profiles/res_kw_2437_pu.sng) qmult = (dblFile=../../../profiles/res_kvar_2437_pu.sng)

New Loadshape.res_kw_9830_pu npts=2016 interval=0.25 mult = (dblFile=../../../profiles/res_kw_9830_pu.sng) qmult = (dblFile=../../../profiles/res_kvar_9830_pu.sng)

New Loadshape.res_kw_4545_pu npts=2016 interval=0.25 mult = (dblFile=../../../profiles/res_kw_4545_pu.sng) qmult = (dblFile=../../../profiles/res_kvar_4545_pu.sng)

New Loadshape.res_kw_5017_pu npts=2016 interval=0.25 mult = (dblFile=../../../profiles/res_kw_5017_pu.sng) qmult = (dblFile=../../../profiles/res_kvar_5017_pu.sng)

New Loadshape.res_kw_9225_pu npts=2016 interval=0.25 mult = (dblFile=../../../profiles/res_kw_9225_pu.sng) qmult = (dblFile=../../../profiles/res_kvar_9225_pu.sng)

New Loadshape.res_kw_3494_pu npts=2016 interval=0.25 mult = (dblFile=../../../profiles/res_kw_3494_pu.sng) qmult = (dblFile=../../../profiles/res_kvar_3494_pu.sng)

New Loadshape.res_kw_2149_pu npts=2016 interval=0.25 mult = (dblFile=../../../profiles/res_kw_2149_pu.sng) qmult = (dblFile=../../../profiles/res_kvar_2149_pu.sng)

New Loadshape.res_kw_7935_pu npts=2016 interval=0.25 mult = (dblFile=../../../profiles/res_kw_7935_pu.sng) qmult = (dblFile=../../../profiles/res_kvar_7935_pu.sng)

New Loadshape.res_kw_3387_pu npts=2016 interval=0.25 mult = (dblFile=../../../profiles/res_kw_3387_pu.sng) qmult = (dblFile=../../../profiles/res_kvar_3387_pu.sng)

New Loadshape.res_kw_12185_pu npts=2016 interval=0.25 mult = (dblFile=../../../profiles/res_kw_12185_pu.sng) qmult = (dblFile=../../../profiles/res_kvar_12185_pu.sng)

New Loadshape.res_kw_14672_pu npts=2016 interval=0.25 mult = (dblFile=../../../profiles/res_kw_14672_pu.sng) qmult = (dblFile=../../../profiles/res_kvar_14672_pu.sng)

New Loadshape.res_kw_2059_pu npts=2016 interval=0.25 mult = (dblFile=../../../profiles/res_kw_2059_pu.sng) qmult = (dblFile=../../../profiles/res_kvar_2059_pu.sng)

New Loadshape.res_kw_10361_pu npts=2016 interval=0.25 mult = (dblFile=../../../profiles/res_kw_10361_pu.sng) qmult = (dblFile=../../../profiles/res_kvar_10361_pu.sng)

New Loadshape.res_kw_933_pu npts=2016 interval=0.25 mult = (dblFile=../../../profiles/res_kw_933_pu.sng) qmult = (dblFile=../../../profiles/res_kvar_933_pu.sng)

New Loadshape.res_kw_12807_pu npts=2016 interval=0.25 mult = (dblFile=../../../profiles/res_kw_12807_pu.sng) qmult = (dblFile=../../../profiles/res_kvar_12807_pu.sng)

New Loadshape.res_kw_3243_pu npts=2016 interval=0.25 mult = (dblFile=../../../profiles/res_kw_3243_pu.sng) qmult = (dblFile=../../../profiles/res_kvar_3243_pu.sng)

New Loadshape.res_kw_6001_pu npts=2016 interval=0.25 mult = (dblFile=../../../profiles/res_kw_6001_pu.sng) qmult = (dblFile=../../../profiles/res_kvar_6001_pu.sng)

New Loadshape.res_kw_3830_pu npts=2016 interval=0.25 mult = (dblFile=../../../profiles/res_kw_3830_pu.sng) qmult = (dblFile=../../../profiles/res_kvar_3830_pu.sng)

New Loadshape.res_kw_4494_pu npts=2016 interval=0.25 mult = (dblFile=../../../profiles/res_kw_4494_pu.sng) qmult = (dblFile=../../../profiles/res_kvar_4494_pu.sng)

New Loadshape.res_kw_11410_pu npts=2016 interval=0.25 mult = (dblFile=../../../profiles/res_kw_11410_pu.sng) qmult = (dblFile=../../../profiles/res_kvar_11410_pu.sng)

New Loadshape.res_kw_2348_pu npts=2016 interval=0.25 mult = (dblFile=../../../profiles/res_kw_2348_pu.sng) qmult = (dblFile=../../../profiles/res_kvar_2348_pu.sng)

New Loadshape.res_kw_1187_pu npts=2016 interval=0.25 mult = (dblFile=../../../profiles/res_kw_1187_pu.sng) qmult = (dblFile=../../../profiles/res_kvar_1187_pu.sng)

New Loadshape.res_kw_6957_pu npts=2016 interval=0.25 mult = (dblFile=../../../profiles/res_kw_6957_pu.sng) qmult = (dblFile=../../../profiles/res_kvar_6957_pu.sng)

New Loadshape.res_kw_5282_pu npts=2016 interval=0.25 mult = (dblFile=../../../profiles/res_kw_5282_pu.sng) qmult = (dblFile=../../../profiles/res_kvar_5282_pu.sng)

New Loadshape.res_kw_3390_pu npts=2016 interval=0.25 mult = (dblFile=../../../profiles/res_kw_3390_pu.sng) qmult = (dblFile=../../../profiles/res_kvar_3390_pu.sng)

New Loadshape.res_kw_4549_pu npts=2016 interval=0.25 mult = (dblFile=../../../profiles/res_kw_4549_pu.sng) qmult = (dblFile=../../../profiles/res_kvar_4549_pu.sng)

New Loadshape.res_kw_119_pu npts=2016 interval=0.25 mult = (dblFile=../../../profiles/res_kw_119_pu.sng) qmult = (dblFile=../../../profiles/res_kvar_119_pu.sng)

New Loadshape.res_kw_13581_pu npts=2016 interval=0.25 mult = (dblFile=../../../profiles/res_kw_13581_pu.sng) qmult = (dblFile=../../../profiles/res_kvar_13581_pu.sng)

New Loadshape.res_kw_9664_pu npts=2016 interval=0.25 mult = (dblFile=../../../profiles/res_kw_9664_pu.sng) qmult = (dblFile=../../../profiles/res_kvar_9664_pu.sng)

New Loadshape.res_kw_9981_pu npts=2016 interval=0.25 mult = (dblFile=../../../profiles/res_kw_9981_pu.sng) qmult = (dblFile=../../../profiles/res_kvar_9981_pu.sng)

New Loadshape.res_kw_965_pu npts=2016 interval=0.25 mult = (dblFile=../../../profiles/res_kw_965_pu.sng) qmult = (dblFile=../../../profiles/res_kvar_965_pu.sng)

New Loadshape.res_kw_1044_pu npts=2016 interval=0.25 mult = (dblFile=../../../profiles/res_kw_1044_pu.sng) qmult = (dblFile=../../../profiles/res_kvar_1044_pu.sng)

New Loadshape.res_kw_7159_pu npts=2016 interval=0.25 mult = (dblFile=../../../profiles/res_kw_7159_pu.sng) qmult = (dblFile=../../../profiles/res_kvar_7159_pu.sng)

New Loadshape.res_kw_10202_pu npts=2016 interval=0.25 mult = (dblFile=../../../profiles/res_kw_10202_pu.sng) qmult = (dblFile=../../../profiles/res_kvar_10202_pu.sng)

New Loadshape.res_kw_7999_pu npts=2016 interval=0.25 mult = (dblFile=../../../profiles/res_kw_7999_pu.sng) qmult = (dblFile=../../../profiles/res_kvar_7999_pu.sng)

New Loadshape.res_kw_13356_pu npts=2016 interval=0.25 mult = (dblFile=../../../profiles/res_kw_13356_pu.sng) qmult = (dblFile=../../../profiles/res_kvar_13356_pu.sng)

New Loadshape.res_kw_4376_pu npts=2016 interval=0.25 mult = (dblFile=../../../profiles/res_kw_4376_pu.sng) qmult = (dblFile=../../../profiles/res_kvar_4376_pu.sng)

New Loadshape.res_kw_6544_pu npts=2016 interval=0.25 mult = (dblFile=../../../profiles/res_kw_6544_pu.sng) qmult = (dblFile=../../../profiles/res_kvar_6544_pu.sng)

New Loadshape.res_kw_2907_pu npts=2016 interval=0.25 mult = (dblFile=../../../profiles/res_kw_2907_pu.sng) qmult = (dblFile=../../../profiles/res_kvar_2907_pu.sng)

New Loadshape.res_kw_12143_pu npts=2016 interval=0.25 mult = (dblFile=../../../profiles/res_kw_12143_pu.sng) qmult = (dblFile=../../../profiles/res_kvar_12143_pu.sng)

New Loadshape.res_kw_11888_pu npts=2016 interval=0.25 mult = (dblFile=../../../profiles/res_kw_11888_pu.sng) qmult = (dblFile=../../../profiles/res_kvar_11888_pu.sng)

New Loadshape.res_kw_946_pu npts=2016 interval=0.25 mult = (dblFile=../../../profiles/res_kw_946_pu.sng) qmult = (dblFile=../../../profiles/res_kvar_946_pu.sng)

New Loadshape.res_kw_9803_pu npts=2016 interval=0.25 mult = (dblFile=../../../profiles/res_kw_9803_pu.sng) qmult = (dblFile=../../../profiles/res_kvar_9803_pu.sng)

New Loadshape.res_kw_5158_pu npts=2016 interval=0.25 mult = (dblFile=../../../profiles/res_kw_5158_pu.sng) qmult = (dblFile=../../../profiles/res_kvar_5158_pu.sng)

New Loadshape.res_kw_2295_pu npts=2016 interval=0.25 mult = (dblFile=../../../profiles/res_kw_2295_pu.sng) qmult = (dblFile=../../../profiles/res_kvar_2295_pu.sng)

New Loadshape.res_kw_10304_pu npts=2016 interval=0.25 mult = (dblFile=../../../profiles/res_kw_10304_pu.sng) qmult = (dblFile=../../../profiles/res_kvar_10304_pu.sng)

New Loadshape.res_kw_12674_pu npts=2016 interval=0.25 mult = (dblFile=../../../profiles/res_kw_12674_pu.sng) qmult = (dblFile=../../../profiles/res_kvar_12674_pu.sng)

New Loadshape.res_kw_319_pu npts=2016 interval=0.25 mult = (dblFile=../../../profiles/res_kw_319_pu.sng) qmult = (dblFile=../../../profiles/res_kvar_319_pu.sng)

New Loadshape.res_kw_2240_pu npts=2016 interval=0.25 mult = (dblFile=../../../profiles/res_kw_2240_pu.sng) qmult = (dblFile=../../../profiles/res_kvar_2240_pu.sng)

New Loadshape.res_kw_4734_pu npts=2016 interval=0.25 mult = (dblFile=../../../profiles/res_kw_4734_pu.sng) qmult = (dblFile=../../../profiles/res_kvar_4734_pu.sng)

New Loadshape.res_kw_13849_pu npts=2016 interval=0.25 mult = (dblFile=../../../profiles/res_kw_13849_pu.sng) qmult = (dblFile=../../../profiles/res_kvar_13849_pu.sng)

New Loadshape.res_kw_8344_pu npts=2016 interval=0.25 mult = (dblFile=../../../profiles/res_kw_8344_pu.sng) qmult = (dblFile=../../../profiles/res_kvar_8344_pu.sng)

New Loadshape.res_kw_3277_pu npts=2016 interval=0.25 mult = (dblFile=../../../profiles/res_kw_3277_pu.sng) qmult = (dblFile=../../../profiles/res_kvar_3277_pu.sng)

New Loadshape.res_kw_10186_pu npts=2016 interval=0.25 mult = (dblFile=../../../profiles/res_kw_10186_pu.sng) qmult = (dblFile=../../../profiles/res_kvar_10186_pu.sng)

New Loadshape.res_kw_9190_pu npts=2016 interval=0.25 mult = (dblFile=../../../profiles/res_kw_9190_pu.sng) qmult = (dblFile=../../../profiles/res_kvar_9190_pu.sng)

New Loadshape.res_kw_10713_pu npts=2016 interval=0.25 mult = (dblFile=../../../profiles/res_kw_10713_pu.sng) qmult = (dblFile=../../../profiles/res_kvar_10713_pu.sng)

New Loadshape.res_kw_8893_pu npts=2016 interval=0.25 mult = (dblFile=../../../profiles/res_kw_8893_pu.sng) qmult = (dblFile=../../../profiles/res_kvar_8893_pu.sng)

New Loadshape.res_kw_12102_pu npts=2016 interval=0.25 mult = (dblFile=../../../profiles/res_kw_12102_pu.sng) qmult = (dblFile=../../../profiles/res_kvar_12102_pu.sng)

New Loadshape.res_kw_11650_pu npts=2016 interval=0.25 mult = (dblFile=../../../profiles/res_kw_11650_pu.sng) qmult = (dblFile=../../../profiles/res_kvar_11650_pu.sng)

New Loadshape.res_kw_9185_pu npts=2016 interval=0.25 mult = (dblFile=../../../profiles/res_kw_9185_pu.sng) qmult = (dblFile=../../../profiles/res_kvar_9185_pu.sng)

New Loadshape.res_kw_1573_pu npts=2016 interval=0.25 mult = (dblFile=../../../profiles/res_kw_1573_pu.sng) qmult = (dblFile=../../../profiles/res_kvar_1573_pu.sng)

New Loadshape.res_kw_7875_pu npts=2016 interval=0.25 mult = (dblFile=../../../profiles/res_kw_7875_pu.sng) qmult = (dblFile=../../../profiles/res_kvar_7875_pu.sng)

New Loadshape.res_kw_7757_pu npts=2016 interval=0.25 mult = (dblFile=../../../profiles/res_kw_7757_pu.sng) qmult = (dblFile=../../../profiles/res_kvar_7757_pu.sng)

New Loadshape.res_kw_5183_pu npts=2016 interval=0.25 mult = (dblFile=../../../profiles/res_kw_5183_pu.sng) qmult = (dblFile=../../../profiles/res_kvar_5183_pu.sng)

New Loadshape.res_kw_396_pu npts=2016 interval=0.25 mult = (dblFile=../../../profiles/res_kw_396_pu.sng) qmult = (dblFile=../../../profiles/res_kvar_396_pu.sng)

New Loadshape.res_kw_4944_pu npts=2016 interval=0.25 mult = (dblFile=../../../profiles/res_kw_4944_pu.sng) qmult = (dblFile=../../../profiles/res_kvar_4944_pu.sng)

New Loadshape.res_kw_5779_pu npts=2016 interval=0.25 mult = (dblFile=../../../profiles/res_kw_5779_pu.sng) qmult = (dblFile=../../../profiles/res_kvar_5779_pu.sng)

New Loadshape.res_kw_10720_pu npts=2016 interval=0.25 mult = (dblFile=../../../profiles/res_kw_10720_pu.sng) qmult = (dblFile=../../../profiles/res_kvar_10720_pu.sng)

New Loadshape.res_kw_3666_pu npts=2016 interval=0.25 mult = (dblFile=../../../profiles/res_kw_3666_pu.sng) qmult = (dblFile=../../../profiles/res_kvar_3666_pu.sng)

New Loadshape.res_kw_13554_pu npts=2016 interval=0.25 mult = (dblFile=../../../profiles/res_kw_13554_pu.sng) qmult = (dblFile=../../../profiles/res_kvar_13554_pu.sng)

New Loadshape.res_kw_4252_pu npts=2016 interval=0.25 mult = (dblFile=../../../profiles/res_kw_4252_pu.sng) qmult = (dblFile=../../../profiles/res_kvar_4252_pu.sng)

New Loadshape.res_kw_6690_pu npts=2016 interval=0.25 mult = (dblFile=../../../profiles/res_kw_6690_pu.sng) qmult = (dblFile=../../../profiles/res_kvar_6690_pu.sng)

New Loadshape.res_kw_12138_pu npts=2016 interval=0.25 mult = (dblFile=../../../profiles/res_kw_12138_pu.sng) qmult = (dblFile=../../../profiles/res_kvar_12138_pu.sng)

New Loadshape.res_kw_9051_pu npts=2016 interval=0.25 mult = (dblFile=../../../profiles/res_kw_9051_pu.sng) qmult = (dblFile=../../../profiles/res_kvar_9051_pu.sng)

New Loadshape.res_kw_9475_pu npts=2016 interval=0.25 mult = (dblFile=../../../profiles/res_kw_9475_pu.sng) qmult = (dblFile=../../../profiles/res_kvar_9475_pu.sng)

New Loadshape.res_kw_13671_pu npts=2016 interval=0.25 mult = (dblFile=../../../profiles/res_kw_13671_pu.sng) qmult = (dblFile=../../../profiles/res_kvar_13671_pu.sng)

New Loadshape.res_kw_712_pu npts=2016 interval=0.25 mult = (dblFile=../../../profiles/res_kw_712_pu.sng) qmult = (dblFile=../../../profiles/res_kvar_712_pu.sng)

New Loadshape.res_kw_12597_pu npts=2016 interval=0.25 mult = (dblFile=../../../profiles/res_kw_12597_pu.sng) qmult = (dblFile=../../../profiles/res_kvar_12597_pu.sng)

New Loadshape.res_kw_4924_pu npts=2016 interval=0.25 mult = (dblFile=../../../profiles/res_kw_4924_pu.sng) qmult = (dblFile=../../../profiles/res_kvar_4924_pu.sng)

New Loadshape.res_kw_14137_pu npts=2016 interval=0.25 mult = (dblFile=../../../profiles/res_kw_14137_pu.sng) qmult = (dblFile=../../../profiles/res_kvar_14137_pu.sng)

New Loadshape.res_kw_13651_pu npts=2016 interval=0.25 mult = (dblFile=../../../profiles/res_kw_13651_pu.sng) qmult = (dblFile=../../../profiles/res_kvar_13651_pu.sng)

New Loadshape.res_kw_9257_pu npts=2016 interval=0.25 mult = (dblFile=../../../profiles/res_kw_9257_pu.sng) qmult = (dblFile=../../../profiles/res_kvar_9257_pu.sng)

New Loadshape.res_kw_11654_pu npts=2016 interval=0.25 mult = (dblFile=../../../profiles/res_kw_11654_pu.sng) qmult = (dblFile=../../../profiles/res_kvar_11654_pu.sng)

New Loadshape.res_kw_4811_pu npts=2016 interval=0.25 mult = (dblFile=../../../profiles/res_kw_4811_pu.sng) qmult = (dblFile=../../../profiles/res_kvar_4811_pu.sng)

New Loadshape.res_kw_2365_pu npts=2016 interval=0.25 mult = (dblFile=../../../profiles/res_kw_2365_pu.sng) qmult = (dblFile=../../../profiles/res_kvar_2365_pu.sng)

New Loadshape.res_kw_4774_pu npts=2016 interval=0.25 mult = (dblFile=../../../profiles/res_kw_4774_pu.sng) qmult = (dblFile=../../../profiles/res_kvar_4774_pu.sng)

New Loadshape.res_kw_845_pu npts=2016 interval=0.25 mult = (dblFile=../../../profiles/res_kw_845_pu.sng) qmult = (dblFile=../../../profiles/res_kvar_845_pu.sng)

New Loadshape.res_kw_11212_pu npts=2016 interval=0.25 mult = (dblFile=../../../profiles/res_kw_11212_pu.sng) qmult = (dblFile=../../../profiles/res_kvar_11212_pu.sng)

New Loadshape.res_kw_3993_pu npts=2016 interval=0.25 mult = (dblFile=../../../profiles/res_kw_3993_pu.sng) qmult = (dblFile=../../../profiles/res_kvar_3993_pu.sng)

New Loadshape.res_kw_665_pu npts=2016 interval=0.25 mult = (dblFile=../../../profiles/res_kw_665_pu.sng) qmult = (dblFile=../../../profiles/res_kvar_665_pu.sng)
