New Transformer.sb10_p13uhs0_1247_trans_301 phases=3 windings=2 wdg=1 conn=delta Kv=69.0 kva=300000.0 %R=0.33831264 bus=sb10_p13uhs0_1247_node_10_6 wdg=2 conn=wye Kv=12.47 kva=300000.0 %R=0.33831264 bus=sb10_p13uhs0_1247_node_10_7 XHL=6.76625

