New Line.l(r:p13udt391lv-p13ulv1392) Units=km Length=0.0137167 bus1=p13udt391lv.1.2 bus2=p13ulv1392.1.2 switch=n enabled=y phases=2 Linecode=1P_UG_AL_1/0_Brenau_2

New Line.l(r:p13udm1565-p13ulv1393) Units=km Length=0.0127096 bus1=p13udm1565.1.2 bus2=p13ulv1393.1.2 switch=n enabled=y phases=2 Linecode=1P_UG_AL_1/0_Brenau_2

New Line.l(r:p13udm1565-p13ulv37940) Units=km Length=0.0140805 bus1=p13udm1565.1.2 bus2=p13ulv37940.1.2 switch=n enabled=y phases=2 Linecode=1P_UG_AL_1/0_Brenau_2

New Line.l(r:p13udm1571-p13ulv37950) Units=km Length=0.0138148 bus1=p13udm1571.1.2 bus2=p13ulv37950.1.2 switch=n enabled=y phases=2 Linecode=1P_UG_AL_1/0_Brenau_2

New Line.l(r:p13udm1570-p13ulv37945) Units=km Length=0.0115511 bus1=p13udm1570.1.2 bus2=p13ulv37945.1.2 switch=n enabled=y phases=2 Linecode=1P_UG_AL_1/0_Brenau_2

New Line.l(r:p13udm1572-p13ulv37954) Units=km Length=0.0115681 bus1=p13udm1572.1.2 bus2=p13ulv37954.1.2 switch=n enabled=y phases=2 Linecode=1P_UG_AL_1/0_Brenau_2

New Line.l(r:p13udm1570-p13udm1572) Units=km Length=0.00991201 bus1=p13udm1570.1.2 bus2=p13udm1572.1.2 switch=n enabled=y phases=2 Linecode=1P_UG_AL_1/0_Brenau_2

New Line.l(r:p13udm1570-p13udm1571) Units=km Length=0.0099244 bus1=p13udm1571.1.2 bus2=p13udm1570.1.2 switch=n enabled=y phases=2 Linecode=1P_UG_AL_1/0_Brenau_2

New Line.l(r:p13udm1565-p13udm1571) Units=km Length=0.0099244 bus1=p13udm1565.1.2 bus2=p13udm1571.1.2 switch=n enabled=y phases=2 Linecode=1P_UG_AL_4/0_Sweetbriar_2

New Line.l(r:p13udm1565-p13udt391lv) Units=km Length=0.0099244 bus1=p13udt391lv.1.2 bus2=p13udm1565.1.2 switch=n enabled=y phases=2 Linecode=1P_UG_AL_4/0_Sweetbriar_2

New Line.l(r:p13udm1566-p13ulv1397) Units=km Length=0.013124 bus1=p13udm1566.1.2 bus2=p13ulv1397.1.2 switch=n enabled=y phases=2 Linecode=1P_UG_AL_1/0_Brenau_2

New Line.l(r:p13udm1568-p13ulv37931) Units=km Length=0.00969394 bus1=p13udm1568.1.2 bus2=p13ulv37931.1.2 switch=n enabled=y phases=2 Linecode=1P_UG_AL_1/0_Brenau_2

New Line.l(r:p13udm1567-p13ulv37928) Units=km Length=0.0109712 bus1=p13udm1567.1.2 bus2=p13ulv37928.1.2 switch=n enabled=y phases=2 Linecode=1P_UG_AL_1/0_Brenau_2

New Line.l(r:p13udm1567-p13udm1568) Units=km Length=0.0198488 bus1=p13udm1568.1.2 bus2=p13udm1567.1.2 switch=n enabled=y phases=2 Linecode=1P_UG_AL_1/0_Brenau_2

New Line.l(r:p13udm1566-p13udm1568) Units=km Length=0.00992162 bus1=p13udm1566.1.2 bus2=p13udm1568.1.2 switch=n enabled=y phases=2 Linecode=1P_UG_AL_1/0_Brenau_2

New Line.l(r:p13udm1566-p13udt391lv) Units=km Length=0.0099148 bus1=p13udt391lv.1.2 bus2=p13udm1566.1.2 switch=n enabled=y phases=2 Linecode=1P_UG_AL_4/0_Sweetbriar_2

New Line.l(r:p13udt392lv-p13ulv37941) Units=km Length=0.0171668 bus1=p13udt392lv.1.2 bus2=p13ulv37941.1.2 switch=n enabled=y phases=2 Linecode=1P_OH_AL_2/0_Rucina_2

New Line.l(r:p13udt392lv-p13ulv37951) Units=km Length=0.0182627 bus1=p13udt392lv.1.2 bus2=p13ulv37951.1.2 switch=n enabled=y phases=2 Linecode=1P_OH_AL_2/0_Rucina_2

New Line.l(r:p13udm1573-p13ulv1394) Units=km Length=0.018810900000000002 bus1=p13udm1573.1.2 bus2=p13ulv1394.1.2 switch=n enabled=y phases=2 Linecode=1P_OH_AL_2/0_Rucina_2

New Line.l(r:p13udm1573-p13ulv37937) Units=km Length=0.018172400000000002 bus1=p13udm1573.1.2 bus2=p13ulv37937.1.2 switch=n enabled=y phases=2 Linecode=1P_OH_AL_2/0_Rucina_2

New Line.l(r:p13udm1573-p13udt392lv) Units=km Length=0.0182688 bus1=p13udt392lv.1.2 bus2=p13udm1573.1.2 switch=n enabled=y phases=2 Linecode=1P_OH_AL_2/0_Rucina_2

New Line.l(r:p13udt393lv-p13ulv1395) Units=km Length=0.0181054 bus1=p13udt393lv.1.2 bus2=p13ulv1395.1.2 switch=n enabled=y phases=2 Linecode=1P_OH_AL_2/0_Rucina_2

New Line.l(r:p13udt393lv-p13ulv37930) Units=km Length=0.0158481 bus1=p13udt393lv.1.2 bus2=p13ulv37930.1.2 switch=n enabled=y phases=2 Linecode=1P_OH_AL_2/0_Rucina_2

New Line.l(r:p13udm1579-p13ulv37933) Units=km Length=0.0158586 bus1=p13udm1579.1.2 bus2=p13ulv37933.1.2 switch=n enabled=y phases=2 Linecode=1P_OH_AL_2/0_Rucina_2

New Line.l(r:p13udm1579-p13udt393lv) Units=km Length=0.019407600000000004 bus1=p13udt393lv.1.2 bus2=p13udm1579.1.2 switch=n enabled=y phases=2 Linecode=1P_OH_AL_2/0_Rucina_2

New Line.l(r:p13udt394lv-p13ulv37925) Units=km Length=0.012610300000000001 bus1=p13udt394lv.1.2 bus2=p13ulv37925.1.2 switch=n enabled=y phases=2 Linecode=1P_UG_AL_1/0_Brenau_2

New Line.l(r:p13udm1580-p13ulv1396) Units=km Length=0.00860928 bus1=p13udm1580.1.2 bus2=p13ulv1396.1.2 switch=n enabled=y phases=2 Linecode=1P_UG_AL_1/0_Brenau_2

New Line.l(r:p13udm1586-p13ulv37932) Units=km Length=0.025186400000000005 bus1=p13udm1586.1.2 bus2=p13ulv37932.1.2 switch=n enabled=y phases=2 Linecode=1P_UG_AL_1/0_Brenau_2

New Line.l(r:p13udm1585-p13ulv37929) Units=km Length=0.0139863 bus1=p13udm1585.1.2 bus2=p13ulv37929.1.2 switch=n enabled=y phases=2 Linecode=1P_UG_AL_1/0_Brenau_2

New Line.l(r:p13udm1585-p13udm1586) Units=km Length=0.013535 bus1=p13udm1586.1.2 bus2=p13udm1585.1.2 switch=n enabled=y phases=2 Linecode=1P_UG_AL_1/0_Brenau_2

New Line.l(r:p13udm1580-p13udm1586) Units=km Length=0.00598976 bus1=p13udm1580.1.2 bus2=p13udm1586.1.2 switch=n enabled=y phases=2 Linecode=1P_UG_AL_1/0_Brenau_2

New Line.l(r:p13udm1580-p13udt394lv) Units=km Length=0.0071752100000000004 bus1=p13udt394lv.1.2 bus2=p13udm1580.1.2 switch=n enabled=y phases=2 Linecode=1P_UG_AL_1/0_Brenau_2

New Line.l(r:p13udm1583-p13ulv37926) Units=km Length=0.0155303 bus1=p13udm1583.1.2 bus2=p13ulv37926.1.2 switch=n enabled=y phases=2 Linecode=1P_UG_AL_1/0_Brenau_2

New Line.l(r:p13udm1581-p13ulv37899) Units=km Length=0.0110752 bus1=p13udm1581.1.2 bus2=p13ulv37899.1.2 switch=n enabled=y phases=2 Linecode=1P_UG_AL_1/0_Brenau_2

New Line.l(r:p13udm1581-p13udm1583) Units=km Length=0.0285242 bus1=p13udm1583.1.2 bus2=p13udm1581.1.2 switch=n enabled=y phases=2 Linecode=1P_UG_AL_1/0_Brenau_2

New Line.l(r:p13udm1584-p13ulv37927) Units=km Length=0.0186831 bus1=p13udm1584.1.2 bus2=p13ulv37927.1.2 switch=n enabled=y phases=2 Linecode=1P_UG_AL_1/0_Brenau_2

New Line.l(r:p13udm1583-p13udm1584) Units=km Length=0.0146189 bus1=p13udm1583.1.2 bus2=p13udm1584.1.2 switch=n enabled=y phases=2 Linecode=1P_UG_AL_1/0_Brenau_2

New Line.l(r:p13udm1583-p13udt394lv) Units=km Length=0.0141197 bus1=p13udt394lv.1.2 bus2=p13udm1583.1.2 switch=n enabled=y phases=2 Linecode=1P_UG_AL_4/0_Sweetbriar_2

New Line.l(r:p13udm1593-p13ulv39110) Units=km Length=0.0171828 bus1=p13udm1593.1.2 bus2=p13ulv39110.1.2 switch=n enabled=y phases=2 Linecode=1P_UG_AL_1/0_Brenau_2

New Line.l(r:p13udm1588-p13ulv37913) Units=km Length=0.0163712 bus1=p13udm1588.1.2 bus2=p13ulv37913.1.2 switch=n enabled=y phases=2 Linecode=1P_UG_AL_1/0_Brenau_2

New Line.l(r:p13udm1588-p13ulv39107) Units=km Length=0.0183716 bus1=p13udm1588.1.2 bus2=p13ulv39107.1.2 switch=n enabled=y phases=2 Linecode=1P_UG_AL_1/0_Brenau_2

New Line.l(r:p13udm1588-p13udm1593) Units=km Length=0.00676172 bus1=p13udm1593.1.2 bus2=p13udm1588.1.2 switch=n enabled=y phases=2 Linecode=1P_UG_AL_1/0_Brenau_2

New Line.l(r:p13udm1593-p13udt395lv) Units=km Length=0.0147053 bus1=p13udt395lv.1.2 bus2=p13udm1593.1.2 switch=n enabled=y phases=2 Linecode=1P_UG_AL_2/0_Converse_2

New Line.l(r:p13udm1594-p13ulv39112) Units=km Length=0.017558700000000003 bus1=p13udm1594.1.2 bus2=p13ulv39112.1.2 switch=n enabled=y phases=2 Linecode=1P_UG_AL_1/0_Brenau_2

New Line.l(r:p13udm1589-p13ulv37914) Units=km Length=0.0126555 bus1=p13udm1589.1.2 bus2=p13ulv37914.1.2 switch=n enabled=y phases=2 Linecode=1P_UG_AL_1/0_Brenau_2

New Line.l(r:p13udm1591-p13ulv37924) Units=km Length=0.041546900000000005 bus1=p13udm1591.1.2 bus2=p13ulv37924.1.2 switch=n enabled=y phases=2 Linecode=1P_UG_AL_1/0_Brenau_2

New Line.l(r:p13udm1587-p13ulv1398) Units=km Length=0.00898481 bus1=p13udm1587.1.2 bus2=p13ulv1398.1.2 switch=n enabled=y phases=2 Linecode=1P_UG_AL_1/0_Brenau_2

New Line.l(r:p13udm1590-p13ulv37921) Units=km Length=0.0155974 bus1=p13udm1590.1.2 bus2=p13ulv37921.1.2 switch=n enabled=y phases=2 Linecode=1P_UG_AL_1/0_Brenau_2

New Line.l(r:p13udm1587-p13udm1590) Units=km Length=0.0058045 bus1=p13udm1587.1.2 bus2=p13udm1590.1.2 switch=n enabled=y phases=2 Linecode=1P_UG_AL_1/0_Brenau_2

New Line.l(r:p13udm1587-p13udm1591) Units=km Length=0.0139517 bus1=p13udm1591.1.2 bus2=p13udm1587.1.2 switch=n enabled=y phases=2 Linecode=1P_UG_AL_1/0_Brenau_2

New Line.l(r:p13udm1589-p13udm1591) Units=km Length=0.00697585 bus1=p13udm1589.1.2 bus2=p13udm1591.1.2 switch=n enabled=y phases=2 Linecode=1P_UG_AL_2/0_Converse_2

New Line.l(r:p13udm1589-p13udm1594) Units=km Length=0.007118550000000001 bus1=p13udm1594.1.2 bus2=p13udm1589.1.2 switch=n enabled=y phases=2 Linecode=1P_UG_AL_4/0_Sweetbriar_2

New Line.l(r:p13udm1595-p13ulv39115) Units=km Length=0.0120422 bus1=p13udm1595.1.2 bus2=p13ulv39115.1.2 switch=n enabled=y phases=2 Linecode=1P_UG_AL_1/0_Brenau_2

New Line.l(r:p13udm1596-p13ulv39120) Units=km Length=0.0101093 bus1=p13udm1596.1.2 bus2=p13ulv39120.1.2 switch=n enabled=y phases=2 Linecode=1P_UG_AL_1/0_Brenau_2

New Line.l(r:p13udm1595-p13udm1596) Units=km Length=0.00989436 bus1=p13udm1595.1.2 bus2=p13udm1596.1.2 switch=n enabled=y phases=2 Linecode=1P_UG_AL_1/0_Brenau_2

New Line.l(r:p13udm1594-p13udm1595) Units=km Length=0.0159351 bus1=p13udm1594.1.2 bus2=p13udm1595.1.2 switch=n enabled=y phases=2 Linecode=1P_UG_AL_1/0_Brenau_2

New Line.l(r:p13udm1594-p13udt395lv) Units=km Length=0.00603075 bus1=p13udt395lv.1.2 bus2=p13udm1594.1.2 switch=n enabled=y phases=2 Linecode=1P_UG_AL_4/0_Sweetbriar_2

New Line.l(r:p13udt396lv-p13ulv39039) Units=km Length=0.0146342 bus1=p13udt396lv.1.2 bus2=p13ulv39039.1.2 switch=n enabled=y phases=2 Linecode=1P_UG_AL_1/0_Brenau_2

New Line.l(r:p13udt396lv-p13ulv39071) Units=km Length=0.0125813 bus1=p13udt396lv.1.2 bus2=p13ulv39071.1.2 switch=n enabled=y phases=2 Linecode=1P_UG_AL_1/0_Brenau_2

New Line.l(r:p13udm1597-p13ulv1399) Units=km Length=0.0138532 bus1=p13udm1597.1.2 bus2=p13ulv1399.1.2 switch=n enabled=y phases=2 Linecode=1P_UG_AL_1/0_Brenau_2

New Line.l(r:p13udm1597-p13ulv39069) Units=km Length=0.012634400000000002 bus1=p13udm1597.1.2 bus2=p13ulv39069.1.2 switch=n enabled=y phases=2 Linecode=1P_UG_AL_1/0_Brenau_2

New Line.l(r:p13udm1597-p13udt396lv) Units=km Length=0.0198418 bus1=p13udt396lv.1.2 bus2=p13udm1597.1.2 switch=n enabled=y phases=2 Linecode=1P_UG_AL_2/0_Converse_2

New Line.l(r:p13udm1599-p13ulv39042) Units=km Length=0.0134036 bus1=p13udm1599.1.2 bus2=p13ulv39042.1.2 switch=n enabled=y phases=2 Linecode=1P_UG_AL_1/0_Brenau_2

New Line.l(r:p13udm1599-p13ulv39073) Units=km Length=0.0121923 bus1=p13udm1599.1.2 bus2=p13ulv39073.1.2 switch=n enabled=y phases=2 Linecode=1P_UG_AL_1/0_Brenau_2

New Line.l(r:p13udm1600-p13ulv39043) Units=km Length=0.0151836 bus1=p13udm1600.1.2 bus2=p13ulv39043.1.2 switch=n enabled=y phases=2 Linecode=1P_UG_AL_1/0_Brenau_2

New Line.l(r:p13udm1599-p13udm1600) Units=km Length=0.00992706 bus1=p13udm1599.1.2 bus2=p13udm1600.1.2 switch=n enabled=y phases=2 Linecode=1P_UG_AL_1/0_Brenau_2

New Line.l(r:p13udm1599-p13udt396lv) Units=km Length=0.00991744 bus1=p13udt396lv.1.2 bus2=p13udm1599.1.2 switch=n enabled=y phases=2 Linecode=1P_UG_AL_4/0_Sweetbriar_2

New Line.l(r:p13udt397lv-p13ulv1400) Units=km Length=0.0166725 bus1=p13udt397lv.1.2 bus2=p13ulv1400.1.2 switch=n enabled=y phases=2 Linecode=1P_UG_AL_1/0_Brenau_2

New Line.l(r:p13udt397lv-p13ulv40243) Units=km Length=0.0174032 bus1=p13udt397lv.1.2 bus2=p13ulv40243.1.2 switch=n enabled=y phases=2 Linecode=1P_UG_AL_1/0_Brenau_2

New Line.l(r:p13udm1605-p13ulv1401) Units=km Length=0.014458700000000001 bus1=p13udm1605.1.2 bus2=p13ulv1401.1.2 switch=n enabled=y phases=2 Linecode=1P_UG_AL_2/0_Converse_2

New Line.l(r:p13udm1605-p13udt397lv) Units=km Length=0.00990783 bus1=p13udt397lv.1.2 bus2=p13udm1605.1.2 switch=n enabled=y phases=2 Linecode=1P_UG_AL_2/0_Converse_2

New Line.l(r:p13udm1606-p13ulv1411) Units=km Length=0.0150889 bus1=p13udm1606.1.2 bus2=p13ulv1411.1.2 switch=n enabled=y phases=2 Linecode=1P_UG_AL_1/0_Brenau_2

New Line.l(r:p13udm1606-p13udt397lv) Units=km Length=0.00990783 bus1=p13udt397lv.1.2 bus2=p13udm1606.1.2 switch=n enabled=y phases=2 Linecode=1P_UG_AL_1/0_Brenau_2

New Line.l(r:p13udt398lv-p13ulv1402) Units=km Length=0.0349596 bus1=p13udt398lv.1.2 bus2=p13ulv1402.1.2 switch=n enabled=y phases=2 Linecode=1P_UG_AL_2/0_Converse_2

New Line.l(r:p13udt398lv-p13ulv1403) Units=km Length=0.015511 bus1=p13udt398lv.1.2 bus2=p13ulv1403.1.2 switch=n enabled=y phases=2 Linecode=1P_UG_AL_1/0_Brenau_2

New Line.l(r:p13udm1610-p13ulv41377) Units=km Length=0.014304800000000001 bus1=p13udm1610.1.2 bus2=p13ulv41377.1.2 switch=n enabled=y phases=2 Linecode=1P_UG_AL_1/0_Brenau_2

New Line.l(r:p13udm1610-p13udt398lv) Units=km Length=0.00985154 bus1=p13udt398lv.1.2 bus2=p13udm1610.1.2 switch=n enabled=y phases=2 Linecode=1P_UG_AL_1/0_Brenau_2

New Line.l(r:p13udt399lv-p13ulv1405) Units=km Length=0.014157000000000001 bus1=p13udt399lv.1.2 bus2=p13ulv1405.1.2 switch=n enabled=y phases=2 Linecode=1P_UG_AL_1/0_Brenau_2

New Line.l(r:p13udt399lv-p13ulv40192) Units=km Length=0.0140177 bus1=p13udt399lv.1.2 bus2=p13ulv40192.1.2 switch=n enabled=y phases=2 Linecode=1P_UG_AL_2/0_Converse_2

New Line.l(r:p13udm1611-p13ulv1404) Units=km Length=0.013995 bus1=p13udm1611.1.2 bus2=p13ulv1404.1.2 switch=n enabled=y phases=2 Linecode=1P_UG_AL_1/0_Brenau_2

New Line.l(r:p13udm1611-p13udt399lv) Units=km Length=0.00982541 bus1=p13udt399lv.1.2 bus2=p13udm1611.1.2 switch=n enabled=y phases=2 Linecode=1P_UG_AL_1/0_Brenau_2

New Line.l(r:p13udm1613-p13ulv1700) Units=km Length=0.0155553 bus1=p13udm1613.1.2 bus2=p13ulv1700.1.2 switch=n enabled=y phases=2 Linecode=1P_UG_AL_1/0_Brenau_2

New Line.l(r:p13udm1613-p13ulv40173) Units=km Length=0.0146842 bus1=p13udm1613.1.2 bus2=p13ulv40173.1.2 switch=n enabled=y phases=2 Linecode=1P_UG_AL_1/0_Brenau_2

New Line.l(r:p13udm1613-p13udt399lv) Units=km Length=0.0196412 bus1=p13udt399lv.1.2 bus2=p13udm1613.1.2 switch=n enabled=y phases=2 Linecode=1P_UG_AL_1/0_Brenau_2

New Line.l(r:p13udt400lv-p13ulv1406) Units=km Length=0.0207748 bus1=p13udt400lv.1.2 bus2=p13ulv1406.1.2 switch=n enabled=y phases=2 Linecode=1P_UG_AL_1/0_Brenau_2

New Line.l(r:p13udt400lv-p13ulv40197) Units=km Length=0.0153601 bus1=p13udt400lv.1.2 bus2=p13ulv40197.1.2 switch=n enabled=y phases=2 Linecode=1P_UG_AL_1/0_Brenau_2

New Line.l(r:p13udm1617-p13ulv1407) Units=km Length=0.0156712 bus1=p13udm1617.1.2 bus2=p13ulv1407.1.2 switch=n enabled=y phases=2 Linecode=1P_UG_AL_1/0_Brenau_2

New Line.l(r:p13udm1617-p13ulv40188) Units=km Length=0.0158048 bus1=p13udm1617.1.2 bus2=p13ulv40188.1.2 switch=n enabled=y phases=2 Linecode=1P_UG_AL_1/0_Brenau_2

New Line.l(r:p13udm1617-p13udt400lv) Units=km Length=0.009556500000000002 bus1=p13udt400lv.1.2 bus2=p13udm1617.1.2 switch=n enabled=y phases=2 Linecode=1P_UG_AL_1/0_Brenau_2

New Line.l(r:p13udt401lv-p13ulv40183) Units=km Length=0.016047 bus1=p13udt401lv.1.2 bus2=p13ulv40183.1.2 switch=n enabled=y phases=2 Linecode=1P_UG_AL_1/0_Brenau_2

New Line.l(r:p13udm1620-p13ulv1408) Units=km Length=0.0147156 bus1=p13udm1620.1.2 bus2=p13ulv1408.1.2 switch=n enabled=y phases=2 Linecode=1P_UG_AL_2/0_Converse_2

New Line.l(r:p13udm1620-p13ulv40186) Units=km Length=0.0156658 bus1=p13udm1620.1.2 bus2=p13ulv40186.1.2 switch=n enabled=y phases=2 Linecode=1P_UG_AL_1/0_Brenau_2

New Line.l(r:p13udm1620-p13udt401lv) Units=km Length=0.00955917 bus1=p13udt401lv.1.2 bus2=p13udm1620.1.2 switch=n enabled=y phases=2 Linecode=1P_UG_AL_4/0_Sweetbriar_2

New Line.l(r:p13udm1621-p13ulv40178) Units=km Length=0.0142231 bus1=p13udm1621.1.2 bus2=p13ulv40178.1.2 switch=n enabled=y phases=2 Linecode=1P_UG_AL_1/0_Brenau_2

New Line.l(r:p13udm1621-p13udt401lv) Units=km Length=0.009556500000000002 bus1=p13udt401lv.1.2 bus2=p13udm1621.1.2 switch=n enabled=y phases=2 Linecode=1P_UG_AL_1/0_Brenau_2

New Line.l(r:p13udt402lv-p13ulv1409) Units=km Length=0.0168837 bus1=p13udt402lv.1.2 bus2=p13ulv1409.1.2 switch=n enabled=y phases=2 Linecode=1P_UG_AL_1/0_Brenau_2

New Line.l(r:p13udt402lv-p13ulv41360) Units=km Length=0.0216258 bus1=p13udt402lv.1.2 bus2=p13ulv41360.1.2 switch=n enabled=y phases=2 Linecode=1P_UG_AL_1/0_Brenau_2

New Line.l(r:p13udt403lv-p13ulv1410) Units=km Length=0.0138392 bus1=p13udt403lv.1.2 bus2=p13ulv1410.1.2 switch=n enabled=y phases=2 Linecode=1P_UG_AL_1/0_Brenau_2

New Line.l(r:p13udt403lv-p13ulv40199) Units=km Length=0.048637700000000006 bus1=p13udt403lv.1.2 bus2=p13ulv40199.1.2 switch=n enabled=y phases=2 Linecode=1P_UG_AL_1/0_Brenau_2

New Line.l(r:p13udt403lv-p13ulv40212) Units=km Length=0.0160169 bus1=p13udt403lv.1.2 bus2=p13ulv40212.1.2 switch=n enabled=y phases=2 Linecode=1P_UG_AL_1/0_Brenau_2

New Line.l(r:p13udt404lv-p13ulv42561) Units=km Length=0.0171799 bus1=p13udt404lv.1.2 bus2=p13ulv42561.1.2 switch=n enabled=y phases=2 Linecode=1P_UG_AL_1/0_Brenau_2

New Line.l(r:p13udt404lv-p13ulv42563) Units=km Length=0.0170891 bus1=p13udt404lv.1.2 bus2=p13ulv42563.1.2 switch=n enabled=y phases=2 Linecode=1P_UG_AL_1/0_Brenau_2

New Line.l(r:p13udm1629-p13ulv1412) Units=km Length=0.0103033 bus1=p13udm1629.1.2 bus2=p13ulv1412.1.2 switch=n enabled=y phases=2 Linecode=1P_UG_AL_4/0_Sweetbriar_2

New Line.l(r:p13udm1629-p13udt404lv) Units=km Length=0.00951467 bus1=p13udt404lv.1.2 bus2=p13udm1629.1.2 switch=n enabled=y phases=2 Linecode=1P_UG_AL_4/0_Sweetbriar_2

New Line.l(r:p13udm1632-p13ulv1413) Units=km Length=0.0109485 bus1=p13udm1632.1.2 bus2=p13ulv1413.1.2 switch=n enabled=y phases=2 Linecode=1P_UG_AL_4/0_Sweetbriar_2

New Line.l(r:p13udm1632-p13udt405lv) Units=km Length=0.00920318 bus1=p13udt405lv.1.2 bus2=p13udm1632.1.2 switch=n enabled=y phases=2 Linecode=1P_UG_AL_4/0_Sweetbriar_2

New Line.l(r:p13udm1633-p13ulv42558) Units=km Length=0.016882400000000002 bus1=p13udm1633.1.2 bus2=p13ulv42558.1.2 switch=n enabled=y phases=2 Linecode=1P_UG_AL_1/0_Brenau_2

New Line.l(r:p13udm1633-p13udt405lv) Units=km Length=0.009204880000000002 bus1=p13udt405lv.1.2 bus2=p13udm1633.1.2 switch=n enabled=y phases=2 Linecode=1P_UG_AL_1/0_Brenau_2

New Line.l(r:p13udt407lv-p13ulv42553) Units=km Length=0.0137885 bus1=p13udt407lv.1.2 bus2=p13ulv42553.1.2 switch=n enabled=y phases=2 Linecode=1P_OH_AL_2/0_Rucina_2

New Line.l(r:p13udm1636-p13ulv1415) Units=km Length=0.0136936 bus1=p13udm1636.1.2 bus2=p13ulv1415.1.2 switch=n enabled=y phases=2 Linecode=1P_OH_AL_2/0_Rucina_2

New Line.l(r:p13udm1636-p13udt407lv) Units=km Length=0.0171217 bus1=p13udt407lv.1.2 bus2=p13udm1636.1.2 switch=n enabled=y phases=2 Linecode=1P_OH_AL_2/0_Rucina_2

New Line.l(r:p13udt408lv-p13ulv1416) Units=km Length=0.01499 bus1=p13udt408lv.1.2 bus2=p13ulv1416.1.2 switch=n enabled=y phases=2 Linecode=1P_UG_AL_4/0_Sweetbriar_2

New Line.l(r:p13udt409lv-p13ulv1417) Units=km Length=0.0169107 bus1=p13udt409lv.1.2 bus2=p13ulv1417.1.2 switch=n enabled=y phases=2 Linecode=1P_UG_AL_1/0_Brenau_2

New Line.l(r:p13udm1641-p13ulv42570) Units=km Length=0.017886400000000004 bus1=p13udm1641.1.2 bus2=p13ulv42570.1.2 switch=n enabled=y phases=2 Linecode=1P_UG_AL_1/0_Brenau_2

New Line.l(r:p13udm1641-p13ulv42576) Units=km Length=0.016924000000000005 bus1=p13udm1641.1.2 bus2=p13ulv42576.1.2 switch=n enabled=y phases=2 Linecode=1P_UG_AL_1/0_Brenau_2

New Line.l(r:p13udm1640-p13ulv1418) Units=km Length=0.0149586 bus1=p13udm1640.1.2 bus2=p13ulv1418.1.2 switch=n enabled=y phases=2 Linecode=1P_UG_AL_1/0_Brenau_2

New Line.l(r:p13udm1640-p13udm1641) Units=km Length=0.00978401 bus1=p13udm1641.1.2 bus2=p13udm1640.1.2 switch=n enabled=y phases=2 Linecode=1P_UG_AL_1/0_Brenau_2

New Line.l(r:p13udm1641-p13udt409lv) Units=km Length=0.00978401 bus1=p13udt409lv.1.2 bus2=p13udm1641.1.2 switch=n enabled=y phases=2 Linecode=1P_UG_AL_4/0_Sweetbriar_2

New Line.l(r:p13udm1643-p13ulv42580) Units=km Length=0.0168229 bus1=p13udm1643.1.2 bus2=p13ulv42580.1.2 switch=n enabled=y phases=2 Linecode=1P_UG_AL_1/0_Brenau_2

New Line.l(r:p13udm1643-p13ulv42585) Units=km Length=0.0168062 bus1=p13udm1643.1.2 bus2=p13ulv42585.1.2 switch=n enabled=y phases=2 Linecode=1P_UG_AL_1/0_Brenau_2

New Line.l(r:p13udm1643-p13udt409lv) Units=km Length=0.00978401 bus1=p13udt409lv.1.2 bus2=p13udm1643.1.2 switch=n enabled=y phases=2 Linecode=1P_UG_AL_2/0_Converse_2

New Line.l(r:p13udm1646-p13ulv1421) Units=km Length=0.0126031 bus1=p13udm1646.1.2 bus2=p13ulv1421.1.2 switch=n enabled=y phases=2 Linecode=1P_UG_AL_1/0_Brenau_2

New Line.l(r:p13udm1646-p13ulv41305) Units=km Length=0.0135505 bus1=p13udm1646.1.2 bus2=p13ulv41305.1.2 switch=n enabled=y phases=2 Linecode=1P_UG_AL_1/0_Brenau_2

New Line.l(r:p13udm1645-p13ulv1420) Units=km Length=0.0129149 bus1=p13udm1645.1.2 bus2=p13ulv1420.1.2 switch=n enabled=y phases=2 Linecode=1P_UG_AL_1/0_Brenau_2

New Line.l(r:p13udm1645-p13udm1646) Units=km Length=0.00986866 bus1=p13udm1646.1.2 bus2=p13udm1645.1.2 switch=n enabled=y phases=2 Linecode=1P_UG_AL_1/0_Brenau_2

New Line.l(r:p13udm1646-p13udt410lv) Units=km Length=0.0098783 bus1=p13udt410lv.1.2 bus2=p13udm1646.1.2 switch=n enabled=y phases=2 Linecode=1P_UG_AL_4/0_Sweetbriar_2

New Line.l(r:p13udm1648-p13ulv41314) Units=km Length=0.0116509 bus1=p13udm1648.1.2 bus2=p13ulv41314.1.2 switch=n enabled=y phases=2 Linecode=1P_UG_AL_1/0_Brenau_2

New Line.l(r:p13udm1648-p13ulv41317) Units=km Length=0.013606200000000002 bus1=p13udm1648.1.2 bus2=p13ulv41317.1.2 switch=n enabled=y phases=2 Linecode=1P_UG_AL_1/0_Brenau_2

New Line.l(r:p13udm1650-p13ulv41326) Units=km Length=0.0134098 bus1=p13udm1650.1.2 bus2=p13ulv41326.1.2 switch=n enabled=y phases=2 Linecode=1P_UG_AL_1/0_Brenau_2

New Line.l(r:p13udm1648-p13udm1650) Units=km Length=0.0098783 bus1=p13udm1648.1.2 bus2=p13udm1650.1.2 switch=n enabled=y phases=2 Linecode=1P_UG_AL_1/0_Brenau_2

New Line.l(r:p13udm1648-p13udt410lv) Units=km Length=0.019747 bus1=p13udt410lv.1.2 bus2=p13udm1648.1.2 switch=n enabled=y phases=2 Linecode=1P_UG_AL_4/0_Sweetbriar_2

New Line.l(r:p13udm2219-p13ulv1694) Units=km Length=0.014650500000000002 bus1=p13udm2219.1.2 bus2=p13ulv1694.1.2 switch=n enabled=y phases=2 Linecode=1P_OH_AL_2/0_Rucina_2

New Line.l(r:p13udm2219-p13udt533lv) Units=km Length=0.0104854 bus1=p13udt533lv.1.2 bus2=p13udm2219.1.2 switch=n enabled=y phases=2 Linecode=1P_OH_AL_2/0_Rucina_2

New Line.l(r:p13udm2220-p13ulv1696) Units=km Length=0.0230633 bus1=p13udm2220.1.2 bus2=p13ulv1696.1.2 switch=n enabled=y phases=2 Linecode=1P_OH_AL_2/0_Rucina_2

New Line.l(r:p13udm2220-p13udt533lv) Units=km Length=0.0435164 bus1=p13udt533lv.1.2 bus2=p13udm2220.1.2 switch=n enabled=y phases=2 Linecode=1P_OH_AL_4/0_Zuzara_2

New Line.l(r:p13udt534lv-p13ulv41330) Units=km Length=0.0109231 bus1=p13udt534lv.1.2 bus2=p13ulv41330.1.2 switch=n enabled=y phases=2 Linecode=1P_UG_AL_1/0_Brenau_2

New Line.l(r:p13udm2221-p13ulv1695) Units=km Length=0.013628500000000002 bus1=p13udm2221.1.2 bus2=p13ulv1695.1.2 switch=n enabled=y phases=2 Linecode=1P_UG_AL_1/0_Brenau_2

New Line.l(r:p13udm2222-p13ulv41306) Units=km Length=0.0145508 bus1=p13udm2222.1.2 bus2=p13ulv41306.1.2 switch=n enabled=y phases=2 Linecode=1P_UG_AL_1/0_Brenau_2

New Line.l(r:p13udm2221-p13udm2222) Units=km Length=0.00951296 bus1=p13udm2221.1.2 bus2=p13udm2222.1.2 switch=n enabled=y phases=2 Linecode=1P_UG_AL_1/0_Brenau_2

New Line.l(r:p13udm2221-p13udt534lv) Units=km Length=0.0170857 bus1=p13udt534lv.1.2 bus2=p13udm2221.1.2 switch=n enabled=y phases=2 Linecode=1P_UG_AL_1/0_Brenau_2

New Line.l(r:p13udm2226-p13ulv119742) Units=km Length=0.0145448 bus1=p13udm2226.1.2 bus2=p13ulv119742.1.2 switch=n enabled=y phases=2 Linecode=1P_UG_AL_1/0_Brenau_2

New Line.l(r:p13udm2224-p13ulv41324) Units=km Length=0.0148392 bus1=p13udm2224.1.2 bus2=p13ulv41324.1.2 switch=n enabled=y phases=2 Linecode=1P_UG_AL_1/0_Brenau_2

New Line.l(r:p13udm2223-p13ulv41311) Units=km Length=0.0159387 bus1=p13udm2223.1.2 bus2=p13ulv41311.1.2 switch=n enabled=y phases=2 Linecode=1P_OH_AL_2/0_Rucina_2

New Line.l(r:p13udm2223-p13udm2224) Units=km Length=0.04881200000000001 bus1=p13udm2224.1.2 bus2=p13udm2223.1.2 switch=n enabled=y phases=2 Linecode=1P_OH_AL_4/0_Zuzara_2

New Line.l(r:p13udm2224-p13udm2226) Units=km Length=0.0191298 bus1=p13udm2226.1.2 bus2=p13udm2224.1.2 switch=n enabled=y phases=2 Linecode=1P_UG_AL_1/0_Brenau_2

New Line.l(r:p13udm2226-p13udt534lv) Units=km Length=0.0170857 bus1=p13udt534lv.1.2 bus2=p13udm2226.1.2 switch=n enabled=y phases=2 Linecode=1P_UG_AL_4/0_Sweetbriar_2

New Line.l(r:p13udt536lv-p13ulv41367) Units=km Length=0.013672100000000001 bus1=p13udt536lv.1.2 bus2=p13ulv41367.1.2 switch=n enabled=y phases=2 Linecode=1P_UG_AL_1/0_Brenau_2

New Line.l(r:p13udm2229-p13ulv1698) Units=km Length=0.014004500000000001 bus1=p13udm2229.1.2 bus2=p13ulv1698.1.2 switch=n enabled=y phases=2 Linecode=1P_UG_AL_2/0_Converse_2

New Line.l(r:p13udm2229-p13ulv41355) Units=km Length=0.011839 bus1=p13udm2229.1.2 bus2=p13ulv41355.1.2 switch=n enabled=y phases=2 Linecode=1P_UG_AL_1/0_Brenau_2

New Line.l(r:p13udm2229-p13udt536lv) Units=km Length=0.00996414 bus1=p13udt536lv.1.2 bus2=p13udm2229.1.2 switch=n enabled=y phases=2 Linecode=1P_UG_AL_4/0_Sweetbriar_2

New Line.l(r:p13udm2233-p13ulv41375) Units=km Length=0.0134396 bus1=p13udm2233.1.2 bus2=p13ulv41375.1.2 switch=n enabled=y phases=2 Linecode=1P_UG_AL_1/0_Brenau_2

New Line.l(r:p13udm2230-p13ulv40176) Units=km Length=0.0350975 bus1=p13udm2230.1.2 bus2=p13ulv40176.1.2 switch=n enabled=y phases=2 Linecode=1P_UG_AL_1/0_Brenau_2

New Line.l(r:p13udm2230-p13udm2233) Units=km Length=0.009954520000000001 bus1=p13udm2233.1.2 bus2=p13udm2230.1.2 switch=n enabled=y phases=2 Linecode=1P_UG_AL_1/0_Brenau_2

New Line.l(r:p13udm2233-p13udt536lv) Units=km Length=0.00996689 bus1=p13udt536lv.1.2 bus2=p13udm2233.1.2 switch=n enabled=y phases=2 Linecode=1P_UG_AL_1/0_Brenau_2

New Line.l(r:p13udt537lv-p13ulv40200) Units=km Length=0.0145703 bus1=p13udt537lv.1.2 bus2=p13ulv40200.1.2 switch=n enabled=y phases=2 Linecode=1P_UG_AL_2/0_Converse_2

New Line.l(r:p13udt537lv-p13ulv40204) Units=km Length=0.013642200000000002 bus1=p13udt537lv.1.2 bus2=p13ulv40204.1.2 switch=n enabled=y phases=2 Linecode=1P_UG_AL_1/0_Brenau_2

New Line.l(r:p13udm2235-p13ulv40193) Units=km Length=0.0422736 bus1=p13udm2235.1.2 bus2=p13ulv40193.1.2 switch=n enabled=y phases=2 Linecode=1P_UG_AL_1/0_Brenau_2

New Line.l(r:p13udm2235-p13ulv40198) Units=km Length=0.0152315 bus1=p13udm2235.1.2 bus2=p13ulv40198.1.2 switch=n enabled=y phases=2 Linecode=1P_UG_AL_1/0_Brenau_2

New Line.l(r:p13udm2234-p13ulv1699) Units=km Length=0.014284900000000001 bus1=p13udm2234.1.2 bus2=p13ulv1699.1.2 switch=n enabled=y phases=2 Linecode=1P_UG_AL_1/0_Brenau_2

New Line.l(r:p13udm2234-p13udm2235) Units=km Length=0.00981579 bus1=p13udm2235.1.2 bus2=p13udm2234.1.2 switch=n enabled=y phases=2 Linecode=1P_UG_AL_1/0_Brenau_2

New Line.l(r:p13udm2235-p13udt537lv) Units=km Length=0.00982541 bus1=p13udt537lv.1.2 bus2=p13udm2235.1.2 switch=n enabled=y phases=2 Linecode=1P_UG_AL_4/0_Sweetbriar_2

New Line.l(r:p13udm2239-p13ulv40210) Units=km Length=0.0136827 bus1=p13udm2239.1.2 bus2=p13ulv40210.1.2 switch=n enabled=y phases=2 Linecode=1P_UG_AL_1/0_Brenau_2

New Line.l(r:p13udm2240-p13ulv40218) Units=km Length=0.0147936 bus1=p13udm2240.1.2 bus2=p13ulv40218.1.2 switch=n enabled=y phases=2 Linecode=1P_UG_AL_1/0_Brenau_2

New Line.l(r:p13udm2239-p13udm2240) Units=km Length=0.00982541 bus1=p13udm2239.1.2 bus2=p13udm2240.1.2 switch=n enabled=y phases=2 Linecode=1P_UG_AL_1/0_Brenau_2

New Line.l(r:p13udm2239-p13udt537lv) Units=km Length=0.00981579 bus1=p13udt537lv.1.2 bus2=p13udm2239.1.2 switch=n enabled=y phases=2 Linecode=1P_UG_AL_1/0_Brenau_2

New Line.l(r:p13udt538lv-p13ulv41364) Units=km Length=0.0170048 bus1=p13udt538lv.1.2 bus2=p13ulv41364.1.2 switch=n enabled=y phases=2 Linecode=1P_UG_AL_1/0_Brenau_2

New Line.l(r:p13udm2241-p13ulv1701) Units=km Length=0.0157845 bus1=p13udm2241.1.2 bus2=p13ulv1701.1.2 switch=n enabled=y phases=2 Linecode=1P_UG_AL_1/0_Brenau_2

New Line.l(r:p13udm2241-p13ulv41370) Units=km Length=0.0148995 bus1=p13udm2241.1.2 bus2=p13ulv41370.1.2 switch=n enabled=y phases=2 Linecode=1P_UG_AL_1/0_Brenau_2

New Line.l(r:p13udm2241-p13udt538lv) Units=km Length=0.00982541 bus1=p13udt538lv.1.2 bus2=p13udm2241.1.2 switch=n enabled=y phases=2 Linecode=1P_UG_AL_4/0_Sweetbriar_2

New Line.l(r:p13udm2243-p13ulv41365) Units=km Length=0.0150465 bus1=p13udm2243.1.2 bus2=p13ulv41365.1.2 switch=n enabled=y phases=2 Linecode=1P_UG_AL_1/0_Brenau_2

New Line.l(r:p13udm2243-p13ulv119737) Units=km Length=0.0153627 bus1=p13udm2243.1.2 bus2=p13ulv119737.1.2 switch=n enabled=y phases=2 Linecode=1P_UG_AL_4/0_Sweetbriar_2

New Line.l(r:p13udm2243-p13udt538lv) Units=km Length=0.00982541 bus1=p13udt538lv.1.2 bus2=p13udm2243.1.2 switch=n enabled=y phases=2 Linecode=1P_UG_AL_4/0_Sweetbriar_2

New Line.l(r:p13udt539lv-p13ulv39053) Units=km Length=0.0161348 bus1=p13udt539lv.1.2 bus2=p13ulv39053.1.2 switch=n enabled=y phases=2 Linecode=1P_UG_AL_1/0_Brenau_2

New Line.l(r:p13udm2246-p13ulv1703) Units=km Length=0.0144215 bus1=p13udm2246.1.2 bus2=p13ulv1703.1.2 switch=n enabled=y phases=2 Linecode=1P_UG_AL_1/0_Brenau_2

New Line.l(r:p13udm2248-p13ulv39025) Units=km Length=0.0135521 bus1=p13udm2248.1.2 bus2=p13ulv39025.1.2 switch=n enabled=y phases=2 Linecode=1P_UG_AL_1/0_Brenau_2

New Line.l(r:p13udm2248-p13ulv39055) Units=km Length=0.0139901 bus1=p13udm2248.1.2 bus2=p13ulv39055.1.2 switch=n enabled=y phases=2 Linecode=1P_UG_AL_1/0_Brenau_2

New Line.l(r:p13udm2246-p13udm2248) Units=km Length=0.00983379 bus1=p13udm2246.1.2 bus2=p13udm2248.1.2 switch=n enabled=y phases=2 Linecode=1P_UG_AL_1/0_Brenau_2

New Line.l(r:p13udm2246-p13udt539lv) Units=km Length=0.00984342 bus1=p13udt539lv.1.2 bus2=p13udm2246.1.2 switch=n enabled=y phases=2 Linecode=1P_UG_AL_4/0_Sweetbriar_2

New Line.l(r:p13udm2249-p13ulv39049) Units=km Length=0.013993 bus1=p13udm2249.1.2 bus2=p13ulv39049.1.2 switch=n enabled=y phases=2 Linecode=1P_UG_AL_1/0_Brenau_2

New Line.l(r:p13udm2247-p13ulv39020) Units=km Length=0.0153012 bus1=p13udm2247.1.2 bus2=p13ulv39020.1.2 switch=n enabled=y phases=2 Linecode=1P_UG_AL_1/0_Brenau_2
