New Line.l(r:p13udt1424lv-p13ulv42782) Units=km Length=0.0125972 bus1=p13udt1424lv.1.2 bus2=p13ulv42782.1.2 switch=n enabled=y phases=2 Linecode=1P_UG_AL_4/0_Sweetbriar_2

New Line.l(r:p13udt1424lv-p13ulv42788) Units=km Length=0.0108582 bus1=p13udt1424lv.1.2 bus2=p13ulv42788.1.2 switch=n enabled=y phases=2 Linecode=1P_UG_AL_1/0_Brenau_2

New Line.l(r:p13udm6289-p13ulv3693) Units=km Length=0.0148838 bus1=p13udm6289.1.2 bus2=p13ulv3693.1.2 switch=n enabled=y phases=2 Linecode=1P_OH_AL_2/0_Rucina_2

New Line.l(r:p13udm6289-p13udt1424lv) Units=km Length=0.0884882 bus1=p13udt1424lv.1.2 bus2=p13udm6289.1.2 switch=n enabled=y phases=2 Linecode=1P_OH_AL_4/0_Zuzara_2

New Line.l(r:p13udm6292-p13ulv42801) Units=km Length=0.00841735 bus1=p13udm6292.1.2 bus2=p13ulv42801.1.2 switch=n enabled=y phases=2 Linecode=1P_UG_AL_1/0_Brenau_2

New Line.l(r:p13udm6288-p13ulv3688) Units=km Length=0.00996005 bus1=p13udm6288.1.2 bus2=p13ulv3688.1.2 switch=n enabled=y phases=2 Linecode=1P_UG_AL_2/0_Converse_2

New Line.l(r:p13udm6288-p13udm6292) Units=km Length=0.0198268 bus1=p13udm6292.1.2 bus2=p13udm6288.1.2 switch=n enabled=y phases=2 Linecode=1P_UG_AL_2/0_Converse_2

New Line.l(r:p13udm6292-p13udt1424lv) Units=km Length=0.0198152 bus1=p13udt1424lv.1.2 bus2=p13udm6292.1.2 switch=n enabled=y phases=2 Linecode=1P_UG_AL_4/0_Sweetbriar_2

New Line.l(r:p13udt1426lv-p13ulv3690) Units=km Length=0.024806600000000005 bus1=p13udt1426lv.1.2 bus2=p13ulv3690.1.2 switch=n enabled=y phases=2 Linecode=1P_OH_AL_2/0_Rucina_2

New Line.l(r:p13udt1426lv-p13ulv3691) Units=km Length=0.00676462 bus1=p13udt1426lv.1.2 bus2=p13ulv3691.1.2 switch=n enabled=y phases=2 Linecode=1P_OH_AL_2/0_Rucina_2

New Line.l(r:p13udt1426lv-p13ulv3692) Units=km Length=0.00935013 bus1=p13udt1426lv.1.2 bus2=p13ulv3692.1.2 switch=n enabled=y phases=2 Linecode=1P_OH_AL_2/0_Rucina_2

New Line.l(r:p13udt1426lv-p13ulv42762) Units=km Length=0.004564480000000001 bus1=p13udt1426lv.1.2 bus2=p13ulv42762.1.2 switch=n enabled=y phases=2 Linecode=1P_OH_AL_2/0_Rucina_2

New Line.l(r:p13udt1427lv-p13ulv3694) Units=km Length=0.0111209 bus1=p13udt1427lv.1.2 bus2=p13ulv3694.1.2 switch=n enabled=y phases=2 Linecode=1P_UG_AL_1/0_Brenau_2

New Line.l(r:p13udm6299-p13ulv39709) Units=km Length=0.031203900000000003 bus1=p13udm6299.1.2 bus2=p13ulv39709.1.2 switch=n enabled=y phases=2 Linecode=1P_UG_AL_1/0_Brenau_2

New Line.l(r:p13udm6299-p13ulv39713) Units=km Length=0.0362945 bus1=p13udm6299.1.2 bus2=p13ulv39713.1.2 switch=n enabled=y phases=2 Linecode=1P_UG_AL_1/0_Brenau_2

New Line.l(r:p13udm6299-p13ulv42816) Units=km Length=0.0127616 bus1=p13udm6299.1.2 bus2=p13ulv42816.1.2 switch=n enabled=y phases=2 Linecode=1P_UG_AL_1/0_Brenau_2

New Line.l(r:p13udm6299-p13udt1427lv) Units=km Length=0.00990758 bus1=p13udt1427lv.1.2 bus2=p13udm6299.1.2 switch=n enabled=y phases=2 Linecode=1P_UG_AL_4/0_Sweetbriar_2

New Line.l(r:p13udm6301-p13ulv42811) Units=km Length=0.009671320000000002 bus1=p13udm6301.1.2 bus2=p13ulv42811.1.2 switch=n enabled=y phases=2 Linecode=1P_UG_AL_1/0_Brenau_2

New Line.l(r:p13udm6301-p13udt1427lv) Units=km Length=0.0198268 bus1=p13udt1427lv.1.2 bus2=p13udm6301.1.2 switch=n enabled=y phases=2 Linecode=1P_UG_AL_1/0_Brenau_2

New Line.l(r:p13udt1428lv-p13ulv3695) Units=km Length=0.0103866 bus1=p13udt1428lv.1.2 bus2=p13ulv3695.1.2 switch=n enabled=y phases=2 Linecode=1P_UG_AL_1/0_Brenau_2

New Line.l(r:p13udm6304-p13ulv42758) Units=km Length=0.0109624 bus1=p13udm6304.1.2 bus2=p13ulv42758.1.2 switch=n enabled=y phases=2 Linecode=1P_UG_AL_1/0_Brenau_2

New Line.l(r:p13udm6304-p13udt1428lv) Units=km Length=0.0199009 bus1=p13udt1428lv.1.2 bus2=p13udm6304.1.2 switch=n enabled=y phases=2 Linecode=1P_UG_AL_1/0_Brenau_2

New Line.l(r:p13udm6305-p13ulv42770) Units=km Length=0.0137227 bus1=p13udm6305.1.2 bus2=p13ulv42770.1.2 switch=n enabled=y phases=2 Linecode=1P_UG_AL_1/0_Brenau_2

New Line.l(r:p13udm6306-p13ulv42783) Units=km Length=0.0269058 bus1=p13udm6306.1.2 bus2=p13ulv42783.1.2 switch=n enabled=y phases=2 Linecode=1P_UG_AL_1/0_Brenau_2

New Line.l(r:p13udm6305-p13udm6306) Units=km Length=0.00994548 bus1=p13udm6305.1.2 bus2=p13udm6306.1.2 switch=n enabled=y phases=2 Linecode=1P_UG_AL_1/0_Brenau_2

New Line.l(r:p13udm6305-p13udt1428lv) Units=km Length=0.00995543 bus1=p13udt1428lv.1.2 bus2=p13udm6305.1.2 switch=n enabled=y phases=2 Linecode=1P_UG_AL_2/0_Converse_2

New Line.l(r:p13udm6308-p13ulv42715) Units=km Length=0.0138318 bus1=p13udm6308.1.2 bus2=p13ulv42715.1.2 switch=n enabled=y phases=2 Linecode=1P_UG_AL_4/0_Sweetbriar_2

New Line.l(r:p13udm6307-p13ulv3696) Units=km Length=0.0122273 bus1=p13udm6307.1.2 bus2=p13ulv3696.1.2 switch=n enabled=y phases=2 Linecode=1P_UG_AL_1/0_Brenau_2

New Line.l(r:p13udm6307-p13udm6308) Units=km Length=0.00970277 bus1=p13udm6308.1.2 bus2=p13udm6307.1.2 switch=n enabled=y phases=2 Linecode=1P_UG_AL_1/0_Brenau_2

New Line.l(r:p13udm6308-p13udt1429lv) Units=km Length=0.00971272 bus1=p13udt1429lv.1.2 bus2=p13udm6308.1.2 switch=n enabled=y phases=2 Linecode=1P_UG_AL_4/0_Sweetbriar_2

New Line.l(r:p13udm6309-p13ulv42731) Units=km Length=0.014100700000000002 bus1=p13udm6309.1.2 bus2=p13ulv42731.1.2 switch=n enabled=y phases=2 Linecode=1P_UG_AL_1/0_Brenau_2

New Line.l(r:p13udm6310-p13ulv42747) Units=km Length=0.0124668 bus1=p13udm6310.1.2 bus2=p13ulv42747.1.2 switch=n enabled=y phases=2 Linecode=1P_UG_AL_1/0_Brenau_2

New Line.l(r:p13udm6309-p13udm6310) Units=km Length=0.00970183 bus1=p13udm6309.1.2 bus2=p13udm6310.1.2 switch=n enabled=y phases=2 Linecode=1P_UG_AL_1/0_Brenau_2

New Line.l(r:p13udm6309-p13udt1429lv) Units=km Length=0.00971272 bus1=p13udt1429lv.1.2 bus2=p13udm6309.1.2 switch=n enabled=y phases=2 Linecode=1P_UG_AL_1/0_Brenau_2

New Line.l(r:p13udt1431lv-p13ulv42657) Units=km Length=0.0133034 bus1=p13udt1431lv.1.2 bus2=p13ulv42657.1.2 switch=n enabled=y phases=2 Linecode=1P_UG_AL_1/0_Brenau_2

New Line.l(r:p13udm6317-p13ulv3698) Units=km Length=0.013301 bus1=p13udm6317.1.2 bus2=p13ulv3698.1.2 switch=n enabled=y phases=2 Linecode=1P_UG_AL_1/0_Brenau_2

New Line.l(r:p13udm6317-p13udt1431lv) Units=km Length=0.00970277 bus1=p13udt1431lv.1.2 bus2=p13udm6317.1.2 switch=n enabled=y phases=2 Linecode=1P_UG_AL_1/0_Brenau_2

New Line.l(r:p13udt1432lv-p13ulv42778) Units=km Length=0.0110027 bus1=p13udt1432lv.1.2 bus2=p13ulv42778.1.2 switch=n enabled=y phases=2 Linecode=1P_UG_AL_1/0_Brenau_2

New Line.l(r:p13udm6319-p13ulv3699) Units=km Length=0.0304227 bus1=p13udm6319.1.2 bus2=p13ulv3699.1.2 switch=n enabled=y phases=2 Linecode=1P_UG_AL_2/0_Converse_2

New Line.l(r:p13udm6319-p13ulv42769) Units=km Length=0.0118914 bus1=p13udm6319.1.2 bus2=p13ulv42769.1.2 switch=n enabled=y phases=2 Linecode=1P_UG_AL_1/0_Brenau_2

New Line.l(r:p13udm6321-p13ulv42773) Units=km Length=0.0105068 bus1=p13udm6321.1.2 bus2=p13ulv42773.1.2 switch=n enabled=y phases=2 Linecode=1P_UG_AL_1/0_Brenau_2

New Line.l(r:p13udm6319-p13udm6321) Units=km Length=0.00953258 bus1=p13udm6319.1.2 bus2=p13udm6321.1.2 switch=n enabled=y phases=2 Linecode=1P_UG_AL_1/0_Brenau_2

New Line.l(r:p13udm6319-p13udt1432lv) Units=km Length=0.00953164 bus1=p13udt1432lv.1.2 bus2=p13udm6319.1.2 switch=n enabled=y phases=2 Linecode=1P_UG_AL_4/0_Sweetbriar_2

New Line.l(r:p13udm6323-p13ulv42786) Units=km Length=0.0123089 bus1=p13udm6323.1.2 bus2=p13ulv42786.1.2 switch=n enabled=y phases=2 Linecode=1P_UG_AL_1/0_Brenau_2

New Line.l(r:p13udm6324-p13ulv42802) Units=km Length=0.0143022 bus1=p13udm6324.1.2 bus2=p13ulv42802.1.2 switch=n enabled=y phases=2 Linecode=1P_UG_AL_1/0_Brenau_2

New Line.l(r:p13udm6323-p13udm6324) Units=km Length=0.00953258 bus1=p13udm6323.1.2 bus2=p13udm6324.1.2 switch=n enabled=y phases=2 Linecode=1P_UG_AL_1/0_Brenau_2

New Line.l(r:p13udm6323-p13udt1432lv) Units=km Length=0.019073200000000002 bus1=p13udt1432lv.1.2 bus2=p13udm6323.1.2 switch=n enabled=y phases=2 Linecode=1P_UG_AL_4/0_Sweetbriar_2

New Line.l(r:p13udt13225lv-p13ulv28950) Units=km Length=0.0135002 bus1=p13udt13225lv.1.2 bus2=p13ulv28950.1.2 switch=n enabled=y phases=2 Linecode=1P_UG_AL_1/0_Brenau_2

New Line.l(r:p13udm55965-p13ulv28948) Units=km Length=0.0107496 bus1=p13udm55965.1.2 bus2=p13ulv28948.1.2 switch=n enabled=y phases=2 Linecode=1P_UG_AL_2/0_Converse_2

New Line.l(r:p13udm55965-p13ulv33818) Units=km Length=0.0133638 bus1=p13udm55965.1.2 bus2=p13ulv33818.1.2 switch=n enabled=y phases=2 Linecode=1P_UG_AL_1/0_Brenau_2

New Line.l(r:p13udm55966-p13ulv28949) Units=km Length=0.0130051 bus1=p13udm55966.1.2 bus2=p13ulv28949.1.2 switch=n enabled=y phases=2 Linecode=1P_UG_AL_1/0_Brenau_2

New Line.l(r:p13udm55966-p13ulv44909) Units=km Length=0.0169523 bus1=p13udm55966.1.2 bus2=p13ulv44909.1.2 switch=n enabled=y phases=2 Linecode=1P_UG_AL_1/0_Brenau_2

New Line.l(r:p13udm55965-p13udm55966) Units=km Length=0.00961574 bus1=p13udm55965.1.2 bus2=p13udm55966.1.2 switch=n enabled=y phases=2 Linecode=1P_UG_AL_2/0_Converse_2

New Line.l(r:p13udm55965-p13udt13225lv) Units=km Length=0.0192315 bus1=p13udt13225lv.1.2 bus2=p13udm55965.1.2 switch=n enabled=y phases=2 Linecode=1P_UG_AL_4/0_Sweetbriar_2

New Line.l(r:p13udm55968-p13ulv28951) Units=km Length=0.013604 bus1=p13udm55968.1.2 bus2=p13ulv28951.1.2 switch=n enabled=y phases=2 Linecode=1P_UG_AL_1/0_Brenau_2

New Line.l(r:p13udm55968-p13ulv44914) Units=km Length=0.0153236 bus1=p13udm55968.1.2 bus2=p13ulv44914.1.2 switch=n enabled=y phases=2 Linecode=1P_UG_AL_1/0_Brenau_2

New Line.l(r:p13udm55968-p13udt13225lv) Units=km Length=0.00961574 bus1=p13udt13225lv.1.2 bus2=p13udm55968.1.2 switch=n enabled=y phases=2 Linecode=1P_UG_AL_1/0_Brenau_2

New Line.l(r:p13udt14713lv-p13ulv32054) Units=km Length=0.0124438 bus1=p13udt14713lv.1.2 bus2=p13ulv32054.1.2 switch=n enabled=y phases=2 Linecode=1P_UG_AL_1/0_Brenau_2

New Line.l(r:p13udm61788-p13ulv32056) Units=km Length=0.0131949 bus1=p13udm61788.1.2 bus2=p13ulv32056.1.2 switch=n enabled=y phases=2 Linecode=1P_UG_AL_4/0_Sweetbriar_2

New Line.l(r:p13udm61788-p13ulv39367) Units=km Length=0.0140932 bus1=p13udm61788.1.2 bus2=p13ulv39367.1.2 switch=n enabled=y phases=2 Linecode=1P_UG_AL_1/0_Brenau_2

New Line.l(r:p13udm61788-p13udt14713lv) Units=km Length=0.013533800000000002 bus1=p13udt14713lv.1.2 bus2=p13udm61788.1.2 switch=n enabled=y phases=2 Linecode=1P_UG_AL_4/0_Sweetbriar_2

New Line.l(r:p13udm61790-p13ulv39368) Units=km Length=0.0115561 bus1=p13udm61790.1.2 bus2=p13ulv39368.1.2 switch=n enabled=y phases=2 Linecode=1P_UG_AL_1/0_Brenau_2

New Line.l(r:p13udm61791-p13ulv39375) Units=km Length=0.0117658 bus1=p13udm61791.1.2 bus2=p13ulv39375.1.2 switch=n enabled=y phases=2 Linecode=1P_UG_AL_1/0_Brenau_2

New Line.l(r:p13udm61790-p13udm61791) Units=km Length=0.0159173 bus1=p13udm61790.1.2 bus2=p13udm61791.1.2 switch=n enabled=y phases=2 Linecode=1P_UG_AL_1/0_Brenau_2

New Line.l(r:p13udm61790-p13udt14713lv) Units=km Length=0.0121497 bus1=p13udt14713lv.1.2 bus2=p13udm61790.1.2 switch=n enabled=y phases=2 Linecode=1P_UG_AL_1/0_Brenau_2

New Line.l(r:p13udt14714lv-p13ulv32736) Units=km Length=0.0120186 bus1=p13udt14714lv.1.2 bus2=p13ulv32736.1.2 switch=n enabled=y phases=2 Linecode=1P_UG_AL_4/0_Sweetbriar_2

New Line.l(r:p13udm61792-p13ulv32055) Units=km Length=0.0112413 bus1=p13udm61792.1.2 bus2=p13ulv32055.1.2 switch=n enabled=y phases=2 Linecode=1P_UG_AL_1/0_Brenau_2

New Line.l(r:p13udm61792-p13ulv32737) Units=km Length=0.0152527 bus1=p13udm61792.1.2 bus2=p13ulv32737.1.2 switch=n enabled=y phases=2 Linecode=1P_UG_AL_2/0_Converse_2

New Line.l(r:p13udm61792-p13udt14714lv) Units=km Length=0.00948376 bus1=p13udt14714lv.1.2 bus2=p13udm61792.1.2 switch=n enabled=y phases=2 Linecode=1P_UG_AL_4/0_Sweetbriar_2

New Line.l(r:p13udm61796-p13ulv40641) Units=km Length=0.0255873 bus1=p13udm61796.1.2 bus2=p13ulv40641.1.2 switch=n enabled=y phases=2 Linecode=1P_UG_AL_1/0_Brenau_2

New Line.l(r:p13udm61795-p13ulv40628) Units=km Length=0.0111221 bus1=p13udm61795.1.2 bus2=p13ulv40628.1.2 switch=n enabled=y phases=2 Linecode=1P_UG_AL_1/0_Brenau_2

New Line.l(r:p13udm61795-p13udm61796) Units=km Length=0.00965352 bus1=p13udm61796.1.2 bus2=p13udm61795.1.2 switch=n enabled=y phases=2 Linecode=1P_UG_AL_1/0_Brenau_2

New Line.l(r:p13udm61796-p13udt14714lv) Units=km Length=0.0670608 bus1=p13udt14714lv.1.2 bus2=p13udm61796.1.2 switch=n enabled=y phases=2 Linecode=1P_UG_AL_1/0_Brenau_2

New Line.l(r:p13udt14715lv-p13ulv32057) Units=km Length=0.0149393 bus1=p13udt14715lv.1.2 bus2=p13ulv32057.1.2 switch=n enabled=y phases=2 Linecode=1P_UG_AL_1/0_Brenau_2

New Line.l(r:p13udm61798-p13ulv32735) Units=km Length=0.010460600000000002 bus1=p13udm61798.1.2 bus2=p13ulv32735.1.2 switch=n enabled=y phases=2 Linecode=1P_UG_AL_4/0_Sweetbriar_2

New Line.l(r:p13udm61799-p13ulv40590) Units=km Length=0.008823 bus1=p13udm61799.1.2 bus2=p13ulv40590.1.2 switch=n enabled=y phases=2 Linecode=1P_UG_AL_4/0_Sweetbriar_2

New Line.l(r:p13udm61798-p13udm61799) Units=km Length=0.00965352 bus1=p13udm61798.1.2 bus2=p13udm61799.1.2 switch=n enabled=y phases=2 Linecode=1P_UG_AL_4/0_Sweetbriar_2

New Line.l(r:p13udm61798-p13udt14715lv) Units=km Length=0.00964532 bus1=p13udt14715lv.1.2 bus2=p13udm61798.1.2 switch=n enabled=y phases=2 Linecode=1P_UG_AL_4/0_Sweetbriar_2

New Line.l(r:p13udm61800-p13ulv40603) Units=km Length=0.0183184 bus1=p13udm61800.1.2 bus2=p13ulv40603.1.2 switch=n enabled=y phases=2 Linecode=1P_UG_AL_1/0_Brenau_2

New Line.l(r:p13udm61800-p13udt14715lv) Units=km Length=0.009430220000000001 bus1=p13udt14715lv.1.2 bus2=p13udm61800.1.2 switch=n enabled=y phases=2 Linecode=1P_UG_AL_1/0_Brenau_2

New Line.l(r:p13udt14716lv-p13ulv40588) Units=km Length=0.018678 bus1=p13udt14716lv.1.2 bus2=p13ulv40588.1.2 switch=n enabled=y phases=2 Linecode=1P_UG_AL_1/0_Brenau_2

New Line.l(r:p13udm61802-p13ulv32731) Units=km Length=0.0112851 bus1=p13udm61802.1.2 bus2=p13ulv32731.1.2 switch=n enabled=y phases=2 Linecode=1P_UG_AL_1/0_Brenau_2

New Line.l(r:p13udm61802-p13udt14716lv) Units=km Length=0.0607857 bus1=p13udt14716lv.1.2 bus2=p13udm61802.1.2 switch=n enabled=y phases=2 Linecode=1P_UG_AL_1/0_Brenau_2

New Line.l(r:p13udm61803-p13ulv40573) Units=km Length=0.0110439 bus1=p13udm61803.1.2 bus2=p13ulv40573.1.2 switch=n enabled=y phases=2 Linecode=1P_UG_AL_4/0_Sweetbriar_2

New Line.l(r:p13udm61801-p13ulv32058) Units=km Length=0.0185989 bus1=p13udm61801.1.2 bus2=p13ulv32058.1.2 switch=n enabled=y phases=2 Linecode=1P_UG_AL_1/0_Brenau_2

New Line.l(r:p13udm61801-p13udm61803) Units=km Length=0.009430220000000001 bus1=p13udm61803.1.2 bus2=p13udm61801.1.2 switch=n enabled=y phases=2 Linecode=1P_UG_AL_1/0_Brenau_2

New Line.l(r:p13udm61803-p13udt14716lv) Units=km Length=0.009430220000000001 bus1=p13udt14716lv.1.2 bus2=p13udm61803.1.2 switch=n enabled=y phases=2 Linecode=1P_UG_AL_4/0_Sweetbriar_2

New Line.l(r:p13udt14718lv-p13ulv39407) Units=km Length=0.0117803 bus1=p13udt14718lv.1.2 bus2=p13ulv39407.1.2 switch=n enabled=y phases=2 Linecode=1P_UG_AL_1/0_Brenau_2

New Line.l(r:p13udm61806-p13ulv32060) Units=km Length=0.0203427 bus1=p13udm61806.1.2 bus2=p13ulv32060.1.2 switch=n enabled=y phases=2 Linecode=1P_UG_AL_1/0_Brenau_2

New Line.l(r:p13udm61806-p13udt14718lv) Units=km Length=0.009407580000000002 bus1=p13udt14718lv.1.2 bus2=p13udm61806.1.2 switch=n enabled=y phases=2 Linecode=1P_UG_AL_1/0_Brenau_2

New Line.l(r:p13udm61807-p13ulv32061) Units=km Length=0.0164827 bus1=p13udm61807.1.2 bus2=p13ulv32061.1.2 switch=n enabled=y phases=2 Linecode=1P_UG_AL_1/0_Brenau_2

New Line.l(r:p13udm61807-p13ulv39391) Units=km Length=0.0135564 bus1=p13udm61807.1.2 bus2=p13ulv39391.1.2 switch=n enabled=y phases=2 Linecode=1P_UG_AL_1/0_Brenau_2

New Line.l(r:p13udm61807-p13udt14718lv) Units=km Length=0.009408470000000002 bus1=p13udt14718lv.1.2 bus2=p13udm61807.1.2 switch=n enabled=y phases=2 Linecode=1P_UG_AL_2/0_Converse_2

New Line.l(r:p13udt14719lv-p13ulv39431) Units=km Length=0.0392363 bus1=p13udt14719lv.1.2 bus2=p13ulv39431.1.2 switch=n enabled=y phases=2 Linecode=1P_UG_AL_1/0_Brenau_2

New Line.l(r:p13udm61810-p13ulv32062) Units=km Length=0.00768315 bus1=p13udm61810.1.2 bus2=p13ulv32062.1.2 switch=n enabled=y phases=2 Linecode=1P_UG_AL_1/0_Brenau_2

New Line.l(r:p13udm61810-p13udt14719lv) Units=km Length=0.00714045 bus1=p13udt14719lv.1.2 bus2=p13udm61810.1.2 switch=n enabled=y phases=2 Linecode=1P_UG_AL_1/0_Brenau_2

New Line.l(r:p13udm61811-p13ulv32063) Units=km Length=0.0154337 bus1=p13udm61811.1.2 bus2=p13ulv32063.1.2 switch=n enabled=y phases=2 Linecode=1P_UG_AL_1/0_Brenau_2

New Line.l(r:p13udm61811-p13ulv32064) Units=km Length=0.0199705 bus1=p13udm61811.1.2 bus2=p13ulv32064.1.2 switch=n enabled=y phases=2 Linecode=1P_UG_AL_4/0_Sweetbriar_2

New Line.l(r:p13udm61811-p13ulv32065) Units=km Length=0.00901581 bus1=p13udm61811.1.2 bus2=p13ulv32065.1.2 switch=n enabled=y phases=2 Linecode=1P_UG_AL_1/0_Brenau_2

New Line.l(r:p13udm61811-p13udt14719lv) Units=km Length=0.00917039 bus1=p13udt14719lv.1.2 bus2=p13udm61811.1.2 switch=n enabled=y phases=2 Linecode=1P_UG_AL_4/0_Sweetbriar_2

New Line.l(r:p13udm61815-p13ulv32066) Units=km Length=0.0112483 bus1=p13udm61815.1.2 bus2=p13ulv32066.1.2 switch=n enabled=y phases=2 Linecode=1P_UG_AL_4/0_Sweetbriar_2

New Line.l(r:p13udm61815-p13ulv32067) Units=km Length=0.015764 bus1=p13udm61815.1.2 bus2=p13ulv32067.1.2 switch=n enabled=y phases=2 Linecode=1P_UG_AL_1/0_Brenau_2

New Line.l(r:p13udm61819-p13ulv39457) Units=km Length=0.0127321 bus1=p13udm61819.1.2 bus2=p13ulv39457.1.2 switch=n enabled=y phases=2 Linecode=1P_UG_AL_4/0_Sweetbriar_2

New Line.l(r:p13udm61815-p13udm61819) Units=km Length=0.00976991 bus1=p13udm61815.1.2 bus2=p13udm61819.1.2 switch=n enabled=y phases=2 Linecode=1P_UG_AL_4/0_Sweetbriar_2

New Line.l(r:p13udm61815-p13udt14720lv) Units=km Length=0.0191522 bus1=p13udt14720lv.1.2 bus2=p13udm61815.1.2 switch=n enabled=y phases=2 Linecode=1P_UG_AL_4/0_Sweetbriar_2

New Line.l(r:p13udm61818-p13ulv39442) Units=km Length=0.0166265 bus1=p13udm61818.1.2 bus2=p13ulv39442.1.2 switch=n enabled=y phases=2 Linecode=1P_UG_AL_1/0_Brenau_2

New Line.l(r:p13udm61817-p13ulv39416) Units=km Length=0.0168231 bus1=p13udm61817.1.2 bus2=p13ulv39416.1.2 switch=n enabled=y phases=2 Linecode=1P_UG_AL_1/0_Brenau_2

New Line.l(r:p13udm61817-p13udm61818) Units=km Length=0.0266339 bus1=p13udm61818.1.2 bus2=p13udm61817.1.2 switch=n enabled=y phases=2 Linecode=1P_UG_AL_1/0_Brenau_2

New Line.l(r:p13udm61818-p13udt14720lv) Units=km Length=0.00775655 bus1=p13udt14720lv.1.2 bus2=p13udm61818.1.2 switch=n enabled=y phases=2 Linecode=1P_UG_AL_1/0_Brenau_2

New Line.l(r:p13udm61820-p13ulv32068) Units=km Length=0.017402 bus1=p13udm61820.1.2 bus2=p13ulv32068.1.2 switch=n enabled=y phases=2 Linecode=1P_UG_AL_1/0_Brenau_2

New Line.l(r:p13udm61822-p13ulv39447) Units=km Length=0.0158308 bus1=p13udm61822.1.2 bus2=p13ulv39447.1.2 switch=n enabled=y phases=2 Linecode=1P_UG_AL_4/0_Sweetbriar_2

New Line.l(r:p13udm61820-p13udm61822) Units=km Length=0.00957675 bus1=p13udm61820.1.2 bus2=p13udm61822.1.2 switch=n enabled=y phases=2 Linecode=1P_UG_AL_4/0_Sweetbriar_2

New Line.l(r:p13udm61820-p13udt14721lv) Units=km Length=0.00775655 bus1=p13udt14721lv.1.2 bus2=p13udm61820.1.2 switch=n enabled=y phases=2 Linecode=1P_UG_AL_4/0_Sweetbriar_2

New Line.l(r:p13udm61821-p13ulv39439) Units=km Length=0.013673500000000002 bus1=p13udm61821.1.2 bus2=p13ulv39439.1.2 switch=n enabled=y phases=2 Linecode=1P_UG_AL_4/0_Sweetbriar_2

New Line.l(r:p13udm61821-p13udt14721lv) Units=km Length=0.017195 bus1=p13udt14721lv.1.2 bus2=p13udm61821.1.2 switch=n enabled=y phases=2 Linecode=1P_UG_AL_4/0_Sweetbriar_2

New Line.l(r:p13udt14723lv-p13ulv39468) Units=km Length=0.0256677 bus1=p13udt14723lv.1.2 bus2=p13ulv39468.1.2 switch=n enabled=y phases=2 Linecode=1P_UG_AL_1/0_Brenau_2

New Line.l(r:p13udt14723lv-p13ulv39469) Units=km Length=0.0132635 bus1=p13udt14723lv.1.2 bus2=p13ulv39469.1.2 switch=n enabled=y phases=2 Linecode=1P_UG_AL_1/0_Brenau_2

New Line.l(r:p13udm61825-p13ulv32071) Units=km Length=0.0145055 bus1=p13udm61825.1.2 bus2=p13ulv32071.1.2 switch=n enabled=y phases=2 Linecode=1P_UG_AL_4/0_Sweetbriar_2

New Line.l(r:p13udm61825-p13udt14723lv) Units=km Length=0.00919222 bus1=p13udt14723lv.1.2 bus2=p13udm61825.1.2 switch=n enabled=y phases=2 Linecode=1P_UG_AL_4/0_Sweetbriar_2

New Line.l(r:p13udt14730lv-p13ulv32079) Units=km Length=0.011351900000000002 bus1=p13udt14730lv.1.2 bus2=p13ulv32079.1.2 switch=n enabled=y phases=2 Linecode=1P_OH_AL_2/0_Rucina_2

New Line.l(r:p13udt14991lv-p13ulv32575) Units=km Length=0.0129769 bus1=p13udt14991lv.1.2 bus2=p13ulv32575.1.2 switch=n enabled=y phases=2 Linecode=1P_UG_AL_1/0_Brenau_2

New Line.l(r:p13udt14991lv-p13ulv38415) Units=km Length=0.0149561 bus1=p13udt14991lv.1.2 bus2=p13ulv38415.1.2 switch=n enabled=y phases=2 Linecode=1P_UG_AL_1/0_Brenau_2

New Line.l(r:p13udm62824-p13ulv32576) Units=km Length=0.0141432 bus1=p13udm62824.1.2 bus2=p13ulv32576.1.2 switch=n enabled=y phases=2 Linecode=1P_UG_AL_2/0_Converse_2

New Line.l(r:p13udm62827-p13ulv38402) Units=km Length=0.0142676 bus1=p13udm62827.1.2 bus2=p13ulv38402.1.2 switch=n enabled=y phases=2 Linecode=1P_UG_AL_1/0_Brenau_2

New Line.l(r:p13udm62829-p13ulv39752) Units=km Length=0.0152763 bus1=p13udm62829.1.2 bus2=p13ulv39752.1.2 switch=n enabled=y phases=2 Linecode=1P_UG_AL_1/0_Brenau_2

New Line.l(r:p13udm62827-p13udm62829) Units=km Length=0.00976631 bus1=p13udm62827.1.2 bus2=p13udm62829.1.2 switch=n enabled=y phases=2 Linecode=1P_UG_AL_1/0_Brenau_2

New Line.l(r:p13udm62824-p13udm62827) Units=km Length=0.00976631 bus1=p13udm62824.1.2 bus2=p13udm62827.1.2 switch=n enabled=y phases=2 Linecode=1P_UG_AL_4/0_Sweetbriar_2

New Line.l(r:p13udm62824-p13udt14991lv) Units=km Length=0.00976631 bus1=p13udt14991lv.1.2 bus2=p13udm62824.1.2 switch=n enabled=y phases=2 Linecode=1P_UG_AL_4/0_Sweetbriar_2

New Line.l(r:p13udm62825-p13ulv32578) Units=km Length=0.011154400000000002 bus1=p13udm62825.1.2 bus2=p13ulv32578.1.2 switch=n enabled=y phases=2 Linecode=1P_UG_AL_1/0_Brenau_2

New Line.l(r:p13udm62825-p13ulv33404) Units=km Length=0.014632 bus1=p13udm62825.1.2 bus2=p13ulv33404.1.2 switch=n enabled=y phases=2 Linecode=1P_UG_AL_1/0_Brenau_2

New Line.l(r:p13udm62825-p13udt14991lv) Units=km Length=0.00976631 bus1=p13udt14991lv.1.2 bus2=p13udm62825.1.2 switch=n enabled=y phases=2 Linecode=1P_UG_AL_1/0_Brenau_2

New Line.l(r:p13udt15008lv-p13ulv42949) Units=km Length=0.0238685 bus1=p13udt15008lv.1.2 bus2=p13ulv42949.1.2 switch=n enabled=y phases=2 Linecode=1P_OH_AL_2/0_Rucina_2

New Line.l(r:p13udt15008lv-p13ulv42955) Units=km Length=0.0155042 bus1=p13udt15008lv.1.2 bus2=p13ulv42955.1.2 switch=n enabled=y phases=2 Linecode=1P_OH_AL_2/0_Rucina_2

New Line.l(r:p13udt15008lv-p13ulv43005) Units=km Length=0.013369900000000002 bus1=p13udt15008lv.1.2 bus2=p13ulv43005.1.2 switch=n enabled=y phases=2 Linecode=1P_OH_AL_2/0_Rucina_2

New Line.l(r:p13udm62897-p13ulv32610) Units=km Length=0.012613100000000002 bus1=p13udm62897.1.2 bus2=p13ulv32610.1.2 switch=n enabled=y phases=2 Linecode=1P_OH_AL_2/0_Rucina_2

New Line.l(r:p13udm62897-p13ulv42967) Units=km Length=0.0116544 bus1=p13udm62897.1.2 bus2=p13ulv42967.1.2 switch=n enabled=y phases=2 Linecode=1P_OH_AL_2/0_Rucina_2

New Line.l(r:p13udm62897-p13udt15008lv) Units=km Length=0.0184404 bus1=p13udt15008lv.1.2 bus2=p13udm62897.1.2 switch=n enabled=y phases=2 Linecode=1P_OH_AL_2/0_Rucina_2

New Line.l(r:p13udt15009lv-p13ulv32612) Units=km Length=0.0114005 bus1=p13udt15009lv.1.2 bus2=p13ulv32612.1.2 switch=n enabled=y phases=2 Linecode=1P_UG_AL_1/0_Brenau_2

New Line.l(r:p13udt15009lv-p13ulv41483) Units=km Length=0.012940400000000001 bus1=p13udt15009lv.1.2 bus2=p13ulv41483.1.2 switch=n enabled=y phases=2 Linecode=1P_UG_AL_4/0_Sweetbriar_2

New Line.l(r:p13udm62902-p13ulv32611) Units=km Length=0.0132417 bus1=p13udm62902.1.2 bus2=p13ulv32611.1.2 switch=n enabled=y phases=2 Linecode=1P_UG_AL_1/0_Brenau_2

New Line.l(r:p13udm62902-p13udt15009lv) Units=km Length=0.00985589 bus1=p13udt15009lv.1.2 bus2=p13udm62902.1.2 switch=n enabled=y phases=2 Linecode=1P_UG_AL_1/0_Brenau_2

New Line.l(r:p13udt15010lv-p13ulv38515) Units=km Length=0.0164479 bus1=p13udt15010lv.1.2 bus2=p13ulv38515.1.2 switch=n enabled=y phases=2 Linecode=1P_OH_AL_2/0_Rucina_2

New Line.l(r:p13udt15010lv-p13ulv38520) Units=km Length=0.013771500000000002 bus1=p13udt15010lv.1.2 bus2=p13ulv38520.1.2 switch=n enabled=y phases=2 Linecode=1P_OH_AL_2/0_Rucina_2

New Line.l(r:p13udt15010lv-p13ulv41498) Units=km Length=0.0392553 bus1=p13udt15010lv.1.2 bus2=p13ulv41498.1.2 switch=n enabled=y phases=2 Linecode=1P_OH_AL_4/0_Zuzara_2

New Line.l(r:p13udm62905-p13ulv32613) Units=km Length=0.0412796 bus1=p13udm62905.1.2 bus2=p13ulv32613.1.2 switch=n enabled=y phases=2 Linecode=1P_OH_AL_4/0_Zuzara_2

New Line.l(r:p13udm62905-p13ulv38536) Units=km Length=0.0132898 bus1=p13udm62905.1.2 bus2=p13ulv38536.1.2 switch=n enabled=y phases=2 Linecode=1P_OH_AL_2/0_Rucina_2

New Line.l(r:p13udm62905-p13ulv43293) Units=km Length=0.0143906 bus1=p13udm62905.1.2 bus2=p13ulv43293.1.2 switch=n enabled=y phases=2 Linecode=1P_OH_AL_2/0_Rucina_2

New Line.l(r:p13udm62905-p13udt15010lv) Units=km Length=0.0188372 bus1=p13udt15010lv.1.2 bus2=p13udm62905.1.2 switch=n enabled=y phases=2 Linecode=1P_OH_AL_2/0_Rucina_2

New Line.l(r:p13udt15011lv-p13ulv38554) Units=km Length=0.0132789 bus1=p13udt15011lv.1.2 bus2=p13ulv38554.1.2 switch=n enabled=y phases=2 Linecode=1P_OH_AL_2/0_Rucina_2

New Line.l(r:p13udt15011lv-p13ulv41556) Units=km Length=0.0351687 bus1=p13udt15011lv.1.2 bus2=p13ulv41556.1.2 switch=n enabled=y phases=2 Linecode=1P_OH_AL_4/0_Zuzara_2

New Line.l(r:p13udt15011lv-p13ulv43295) Units=km Length=0.0150053 bus1=p13udt15011lv.1.2 bus2=p13ulv43295.1.2 switch=n enabled=y phases=2 Linecode=1P_OH_AL_2/0_Rucina_2

New Line.l(r:p13udt15011lv-p13ulv43296) Units=km Length=0.011400700000000001 bus1=p13udt15011lv.1.2 bus2=p13ulv43296.1.2 switch=n enabled=y phases=2 Linecode=1P_OH_AL_2/0_Rucina_2

New Line.l(r:p13udm62911-p13ulv32614) Units=km Length=0.0376777 bus1=p13udm62911.1.2 bus2=p13ulv32614.1.2 switch=n enabled=y phases=2 Linecode=1P_OH_AL_4/0_Zuzara_2

New Line.l(r:p13udm62911-p13udt15011lv) Units=km Length=0.0188481 bus1=p13udt15011lv.1.2 bus2=p13udm62911.1.2 switch=n enabled=y phases=2 Linecode=1P_OH_AL_2/0_Rucina_2

New Line.l(r:p13udt15012lv-p13ulv32615) Units=km Length=0.0117207 bus1=p13udt15012lv.1.2 bus2=p13ulv32615.1.2 switch=n enabled=y phases=2 Linecode=1P_UG_AL_4/0_Sweetbriar_2

New Line.l(r:p13udm62917-p13ulv41584) Units=km Length=0.012292000000000003 bus1=p13udm62917.1.2 bus2=p13ulv41584.1.2 switch=n enabled=y phases=2 Linecode=1P_UG_AL_1/0_Brenau_2

New Line.l(r:p13udm62917-p13ulv41608) Units=km Length=0.011210300000000001 bus1=p13udm62917.1.2 bus2=p13ulv41608.1.2 switch=n enabled=y phases=2 Linecode=1P_UG_AL_1/0_Brenau_2

New Line.l(r:p13udm62917-p13udt15012lv) Units=km Length=0.00942678 bus1=p13udt15012lv.1.2 bus2=p13udm62917.1.2 switch=n enabled=y phases=2 Linecode=1P_UG_AL_1/0_Brenau_2

New Line.l(r:p13udm62919-p13ulv41614) Units=km Length=0.012027 bus1=p13udm62919.1.2 bus2=p13ulv41614.1.2 switch=n enabled=y phases=2 Linecode=1P_UG_AL_1/0_Brenau_2

New Line.l(r:p13udm62919-p13udt15012lv) Units=km Length=0.00941523 bus1=p13udt15012lv.1.2 bus2=p13udm62919.1.2 switch=n enabled=y phases=2 Linecode=1P_UG_AL_1/0_Brenau_2

New Line.l(r:p13udm62921-p13ulv32630) Units=km Length=0.0112093 bus1=p13udm62921.1.2 bus2=p13ulv32630.1.2 switch=n enabled=y phases=2 Linecode=1P_UG_AL_4/0_Sweetbriar_2

New Line.l(r:p13udm62921-p13ulv32631) Units=km Length=0.0105987 bus1=p13udm62921.1.2 bus2=p13ulv32631.1.2 switch=n enabled=y phases=2 Linecode=1P_UG_AL_1/0_Brenau_2

New Line.l(r:p13udm62920-p13ulv32616) Units=km Length=0.011882800000000002 bus1=p13udm62920.1.2 bus2=p13ulv32616.1.2 switch=n enabled=y phases=2 Linecode=1P_UG_AL_1/0_Brenau_2

New Line.l(r:p13udm62920-p13udm62921) Units=km Length=0.018842 bus1=p13udm62921.1.2 bus2=p13udm62920.1.2 switch=n enabled=y phases=2 Linecode=1P_UG_AL_1/0_Brenau_2

New Line.l(r:p13udm62921-p13udt15013lv) Units=km Length=0.00941692 bus1=p13udt15013lv.1.2 bus2=p13udm62921.1.2 switch=n enabled=y phases=2 Linecode=1P_UG_AL_4/0_Sweetbriar_2

New Line.l(r:p13udm62924-p13ulv42877) Units=km Length=0.011711400000000002 bus1=p13udm62924.1.2 bus2=p13ulv42877.1.2 switch=n enabled=y phases=2 Linecode=1P_UG_AL_1/0_Brenau_2

New Line.l(r:p13udm62923-p13ulv33712) Units=km Length=0.0106822 bus1=p13udm62923.1.2 bus2=p13ulv33712.1.2 switch=n enabled=y phases=2 Linecode=1P_UG_AL_4/0_Sweetbriar_2

New Line.l(r:p13udm62923-p13udm62924) Units=km Length=0.00941523 bus1=p13udm62924.1.2 bus2=p13udm62923.1.2 switch=n enabled=y phases=2 Linecode=1P_UG_AL_4/0_Sweetbriar_2

New Line.l(r:p13udm62924-p13udt15013lv) Units=km Length=0.00942678 bus1=p13udt15013lv.1.2 bus2=p13udm62924.1.2 switch=n enabled=y phases=2 Linecode=1P_UG_AL_4/0_Sweetbriar_2

New Line.l(r:p13udt15014lv-p13ulv41562) Units=km Length=0.0136814 bus1=p13udt15014lv.1.2 bus2=p13ulv41562.1.2 switch=n enabled=y phases=2 Linecode=1P_UG_AL_1/0_Brenau_2

New Line.l(r:p13udt15014lv-p13ulv41565) Units=km Length=0.0418607 bus1=p13udt15014lv.1.2 bus2=p13ulv41565.1.2 switch=n enabled=y phases=2 Linecode=1P_UG_AL_1/0_Brenau_2

New Line.l(r:p13udm62928-p13ulv41571) Units=km Length=0.012392 bus1=p13udm62928.1.2 bus2=p13ulv41571.1.2 switch=n enabled=y phases=2 Linecode=1P_UG_AL_1/0_Brenau_2

New Line.l(r:p13udm62925-p13ulv32617) Units=km Length=0.011444300000000001 bus1=p13udm62925.1.2 bus2=p13ulv32617.1.2 switch=n enabled=y phases=2 Linecode=1P_UG_AL_1/0_Brenau_2

New Line.l(r:p13udm62925-p13udm62928) Units=km Length=0.00985589 bus1=p13udm62928.1.2 bus2=p13udm62925.1.2 switch=n enabled=y phases=2 Linecode=1P_UG_AL_1/0_Brenau_2

New Line.l(r:p13udm62928-p13udt15014lv) Units=km Length=0.00985493 bus1=p13udt15014lv.1.2 bus2=p13udm62928.1.2 switch=n enabled=y phases=2 Linecode=1P_UG_AL_1/0_Brenau_2

New Line.l(r:p13udt15015lv-p13ulv32641) Units=km Length=0.00783207 bus1=p13udt15015lv.1.2 bus2=p13ulv32641.1.2 switch=n enabled=y phases=2 Linecode=1P_UG_AL_1/0_Brenau_2
