New Load.load_p13ulv3688_1 conn=wye bus1=p13ulv3688.1 kV=0.12 Vminpu=0.8 Vmaxpu=1.2 model=1 kW=8.2245280367811 kvar=4.561798918625033 Phases=1 yearly=res_kw_8344_pu

New Load.load_p13ulv3688_2 conn=wye bus1=p13ulv3688.2 kV=0.12 Vminpu=0.8 Vmaxpu=1.2 model=1 kW=8.2245280367811 kvar=4.561798918625033 Phases=1 yearly=res_kw_8344_pu

New Load.load_p13ulv3690_1 conn=wye bus1=p13ulv3690.1 kV=0.12 Vminpu=0.8 Vmaxpu=1.2 model=1 kW=3.965811262619282 kvar=1.179887620308166 Phases=1 yearly=res_kw_3277_pu

New Load.load_p13ulv3690_2 conn=wye bus1=p13ulv3690.2 kV=0.12 Vminpu=0.8 Vmaxpu=1.2 model=1 kW=3.965811262619282 kvar=1.179887620308166 Phases=1 yearly=res_kw_3277_pu

New Load.load_p13ulv3691_1 conn=wye bus1=p13ulv3691.1 kV=0.12 Vminpu=0.8 Vmaxpu=1.2 model=1 kW=2.07461122432576 kvar=0.5577119778240083 Phases=1 yearly=res_kw_10186_pu

New Load.load_p13ulv3691_2 conn=wye bus1=p13ulv3691.2 kV=0.12 Vminpu=0.8 Vmaxpu=1.2 model=1 kW=2.07461122432576 kvar=0.5577119778240083 Phases=1 yearly=res_kw_10186_pu

New Load.load_p13ulv3692_1 conn=wye bus1=p13ulv3692.1 kV=0.12 Vminpu=0.8 Vmaxpu=1.2 model=1 kW=6.016101116752196 kvar=0.4002351854880724 Phases=1 yearly=res_kw_9190_pu

New Load.load_p13ulv3692_2 conn=wye bus1=p13ulv3692.2 kV=0.12 Vminpu=0.8 Vmaxpu=1.2 model=1 kW=6.016101116752196 kvar=0.4002351854880724 Phases=1 yearly=res_kw_9190_pu

New Load.load_p13ulv3693_1 conn=wye bus1=p13ulv3693.1 kV=0.12 Vminpu=0.8 Vmaxpu=1.2 model=1 kW=3.05276934607919 kvar=1.2252585647321785 Phases=1 yearly=res_kw_10713_pu

New Load.load_p13ulv3693_2 conn=wye bus1=p13ulv3693.2 kV=0.12 Vminpu=0.8 Vmaxpu=1.2 model=1 kW=3.05276934607919 kvar=1.2252585647321785 Phases=1 yearly=res_kw_10713_pu

New Load.load_p13ulv3694_1 conn=wye bus1=p13ulv3694.1 kV=0.12 Vminpu=0.8 Vmaxpu=1.2 model=1 kW=4.649386792014117 kvar=1.3889237958064855 Phases=1 yearly=res_kw_8893_pu

New Load.load_p13ulv3694_2 conn=wye bus1=p13ulv3694.2 kV=0.12 Vminpu=0.8 Vmaxpu=1.2 model=1 kW=4.649386792014117 kvar=1.3889237958064855 Phases=1 yearly=res_kw_8893_pu

New Load.load_p13ulv3695_1 conn=wye bus1=p13ulv3695.1 kV=0.12 Vminpu=0.8 Vmaxpu=1.2 model=1 kW=10.151921073598864 kvar=1.3992601170167323 Phases=1 yearly=res_kw_12102_pu

New Load.load_p13ulv3695_2 conn=wye bus1=p13ulv3695.2 kV=0.12 Vminpu=0.8 Vmaxpu=1.2 model=1 kW=10.151921073598864 kvar=1.3992601170167323 Phases=1 yearly=res_kw_12102_pu

New Load.load_p13ulv3696_1 conn=wye bus1=p13ulv3696.1 kV=0.12 Vminpu=0.8 Vmaxpu=1.2 model=1 kW=5.2844394308809175 kvar=1.0522712324848236 Phases=1 yearly=res_kw_4549_pu

New Load.load_p13ulv3696_2 conn=wye bus1=p13ulv3696.2 kV=0.12 Vminpu=0.8 Vmaxpu=1.2 model=1 kW=5.2844394308809175 kvar=1.0522712324848236 Phases=1 yearly=res_kw_4549_pu

New Load.load_p13ulv3698_1 conn=wye bus1=p13ulv3698.1 kV=0.12 Vminpu=0.8 Vmaxpu=1.2 model=1 kW=4.653854127758627 kvar=3.371180794849531 Phases=1 yearly=res_kw_9185_pu

New Load.load_p13ulv3698_2 conn=wye bus1=p13ulv3698.2 kV=0.12 Vminpu=0.8 Vmaxpu=1.2 model=1 kW=4.653854127758627 kvar=3.371180794849531 Phases=1 yearly=res_kw_9185_pu

New Load.load_p13ulv3699_1 conn=wye bus1=p13ulv3699.1 kV=0.12 Vminpu=0.8 Vmaxpu=1.2 model=1 kW=8.539340903420044 kvar=1.6141936592436177 Phases=1 yearly=res_kw_1573_pu

New Load.load_p13ulv3699_2 conn=wye bus1=p13ulv3699.2 kV=0.12 Vminpu=0.8 Vmaxpu=1.2 model=1 kW=8.539340903420044 kvar=1.6141936592436177 Phases=1 yearly=res_kw_1573_pu

New Load.load_p13ulv28947 conn=wye bus1=p13ulv28947.1.2.3 kV=0.48 Vminpu=0.8 Vmaxpu=1.2 model=1 kW=26.835354481671754 kvar=9.893633170474581 Phases=3 yearly=res_kw_1456_pu

New Load.load_p13ulv28948_1 conn=wye bus1=p13ulv28948.1 kV=0.12 Vminpu=0.8 Vmaxpu=1.2 model=1 kW=33.3366905969107 kvar=4.901046192732323 Phases=1 yearly=res_kw_5121_pu

New Load.load_p13ulv28948_2 conn=wye bus1=p13ulv28948.2 kV=0.12 Vminpu=0.8 Vmaxpu=1.2 model=1 kW=33.3366905969107 kvar=4.901046192732323 Phases=1 yearly=res_kw_5121_pu

New Load.load_p13ulv28949_1 conn=wye bus1=p13ulv28949.1 kV=0.12 Vminpu=0.8 Vmaxpu=1.2 model=1 kW=3.2887112128735323 kvar=0.8179021603182046 Phases=1 yearly=res_kw_119_pu

New Load.load_p13ulv28949_2 conn=wye bus1=p13ulv28949.2 kV=0.12 Vminpu=0.8 Vmaxpu=1.2 model=1 kW=3.2887112128735323 kvar=0.8179021603182046 Phases=1 yearly=res_kw_119_pu

New Load.load_p13ulv28950_1 conn=wye bus1=p13ulv28950.1 kV=0.12 Vminpu=0.8 Vmaxpu=1.2 model=1 kW=3.5550713895719452 kvar=0.8002362893361499 Phases=1 yearly=res_kw_6237_pu

New Load.load_p13ulv28950_2 conn=wye bus1=p13ulv28950.2 kV=0.12 Vminpu=0.8 Vmaxpu=1.2 model=1 kW=3.5550713895719452 kvar=0.8002362893361499 Phases=1 yearly=res_kw_6237_pu

New Load.load_p13ulv28951_1 conn=wye bus1=p13ulv28951.1 kV=0.12 Vminpu=0.8 Vmaxpu=1.2 model=1 kW=2.7071371409921654 kvar=1.0605988772240902 Phases=1 yearly=res_kw_10262_pu

New Load.load_p13ulv28951_2 conn=wye bus1=p13ulv28951.2 kV=0.12 Vminpu=0.8 Vmaxpu=1.2 model=1 kW=2.7071371409921654 kvar=1.0605988772240902 Phases=1 yearly=res_kw_10262_pu

New Load.load_p13ulv32054_1 conn=wye bus1=p13ulv32054.1 kV=0.12 Vminpu=0.8 Vmaxpu=1.2 model=1 kW=4.59957743308055 kvar=0.20646649165522005 Phases=1 yearly=res_kw_7581_pu

New Load.load_p13ulv32054_2 conn=wye bus1=p13ulv32054.2 kV=0.12 Vminpu=0.8 Vmaxpu=1.2 model=1 kW=4.59957743308055 kvar=0.20646649165522005 Phases=1 yearly=res_kw_7581_pu

New Load.load_p13ulv32055_1 conn=wye bus1=p13ulv32055.1 kV=0.12 Vminpu=0.8 Vmaxpu=1.2 model=1 kW=5.556450793943781 kvar=1.7014391246371996 Phases=1 yearly=res_kw_3669_pu

New Load.load_p13ulv32055_2 conn=wye bus1=p13ulv32055.2 kV=0.12 Vminpu=0.8 Vmaxpu=1.2 model=1 kW=5.556450793943781 kvar=1.7014391246371996 Phases=1 yearly=res_kw_3669_pu

New Load.load_p13ulv32056_1 conn=wye bus1=p13ulv32056.1 kV=0.12 Vminpu=0.8 Vmaxpu=1.2 model=1 kW=7.670072575634059 kvar=2.2240119984549613 Phases=1 yearly=com_kw_29541_pu

New Load.load_p13ulv32056_2 conn=wye bus1=p13ulv32056.2 kV=0.12 Vminpu=0.8 Vmaxpu=1.2 model=1 kW=7.670072575634059 kvar=2.2240119984549613 Phases=1 yearly=com_kw_29541_pu

New Load.load_p13ulv32057_1 conn=wye bus1=p13ulv32057.1 kV=0.12 Vminpu=0.8 Vmaxpu=1.2 model=1 kW=5.556450793943781 kvar=1.7014391246371996 Phases=1 yearly=res_kw_3669_pu

New Load.load_p13ulv32057_2 conn=wye bus1=p13ulv32057.2 kV=0.12 Vminpu=0.8 Vmaxpu=1.2 model=1 kW=5.556450793943781 kvar=1.7014391246371996 Phases=1 yearly=res_kw_3669_pu

New Load.load_p13ulv32058_1 conn=wye bus1=p13ulv32058.1 kV=0.12 Vminpu=0.8 Vmaxpu=1.2 model=1 kW=2.7096273035432676 kvar=0.9427200469116054 Phases=1 yearly=res_kw_804_pu

New Load.load_p13ulv32058_2 conn=wye bus1=p13ulv32058.2 kV=0.12 Vminpu=0.8 Vmaxpu=1.2 model=1 kW=2.7096273035432676 kvar=0.9427200469116054 Phases=1 yearly=res_kw_804_pu

New Load.load_p13ulv32059 conn=wye bus1=p13ulv32059.1.2.3 kV=0.48 Vminpu=0.8 Vmaxpu=1.2 model=1 kW=76.31392298657819 kvar=5.461438629656245 Phases=3 yearly=com_kw_1919_pu

New Load.load_p13ulv32060_1 conn=wye bus1=p13ulv32060.1 kV=0.12 Vminpu=0.8 Vmaxpu=1.2 model=1 kW=2.49500804843348 kvar=0.9098241095072396 Phases=1 yearly=res_kw_3630_pu

New Load.load_p13ulv32060_2 conn=wye bus1=p13ulv32060.2 kV=0.12 Vminpu=0.8 Vmaxpu=1.2 model=1 kW=2.49500804843348 kvar=0.9098241095072396 Phases=1 yearly=res_kw_3630_pu

New Load.load_p13ulv32061_1 conn=wye bus1=p13ulv32061.1 kV=0.12 Vminpu=0.8 Vmaxpu=1.2 model=1 kW=16.183652199217786 kvar=4.254860394693257 Phases=1 yearly=res_kw_9887_pu

New Load.load_p13ulv32061_2 conn=wye bus1=p13ulv32061.2 kV=0.12 Vminpu=0.8 Vmaxpu=1.2 model=1 kW=16.183652199217786 kvar=4.254860394693257 Phases=1 yearly=res_kw_9887_pu

New Load.load_p13ulv32062_1 conn=wye bus1=p13ulv32062.1 kV=0.12 Vminpu=0.8 Vmaxpu=1.2 model=1 kW=3.892820004287157 kvar=0.9556340487940717 Phases=1 yearly=res_kw_14894_pu

New Load.load_p13ulv32062_2 conn=wye bus1=p13ulv32062.2 kV=0.12 Vminpu=0.8 Vmaxpu=1.2 model=1 kW=3.892820004287157 kvar=0.9556340487940717 Phases=1 yearly=res_kw_14894_pu

New Load.load_p13ulv32063_1 conn=wye bus1=p13ulv32063.1 kV=0.12 Vminpu=0.8 Vmaxpu=1.2 model=1 kW=3.27957445473064 kvar=0.9887218823769535 Phases=1 yearly=res_kw_2524_pu

New Load.load_p13ulv32063_2 conn=wye bus1=p13ulv32063.2 kV=0.12 Vminpu=0.8 Vmaxpu=1.2 model=1 kW=3.27957445473064 kvar=0.9887218823769535 Phases=1 yearly=res_kw_2524_pu

New Load.load_p13ulv32064_1 conn=wye bus1=p13ulv32064.1 kV=0.12 Vminpu=0.8 Vmaxpu=1.2 model=1 kW=7.485562141153769 kvar=1.0834996926581133 Phases=1 yearly=com_kw_39241_pu

New Load.load_p13ulv32064_2 conn=wye bus1=p13ulv32064.2 kV=0.12 Vminpu=0.8 Vmaxpu=1.2 model=1 kW=7.485562141153769 kvar=1.0834996926581133 Phases=1 yearly=com_kw_39241_pu

New Load.load_p13ulv32065_1 conn=wye bus1=p13ulv32065.1 kV=0.12 Vminpu=0.8 Vmaxpu=1.2 model=1 kW=4.394447078703652 kvar=1.0854590621679832 Phases=1 yearly=com_kw_39929_pu

New Load.load_p13ulv32065_2 conn=wye bus1=p13ulv32065.2 kV=0.12 Vminpu=0.8 Vmaxpu=1.2 model=1 kW=4.394447078703652 kvar=1.0854590621679832 Phases=1 yearly=com_kw_39929_pu

New Load.load_p13ulv32066_1 conn=wye bus1=p13ulv32066.1 kV=0.12 Vminpu=0.8 Vmaxpu=1.2 model=1 kW=37.39852122630375 kvar=7.009785017283187 Phases=1 yearly=res_kw_2650_pu

New Load.load_p13ulv32066_2 conn=wye bus1=p13ulv32066.2 kV=0.12 Vminpu=0.8 Vmaxpu=1.2 model=1 kW=37.39852122630375 kvar=7.009785017283187 Phases=1 yearly=res_kw_2650_pu

New Load.load_p13ulv32067_1 conn=wye bus1=p13ulv32067.1 kV=0.12 Vminpu=0.8 Vmaxpu=1.2 model=1 kW=2.7096273035432676 kvar=0.9427200469116054 Phases=1 yearly=res_kw_804_pu

New Load.load_p13ulv32067_2 conn=wye bus1=p13ulv32067.2 kV=0.12 Vminpu=0.8 Vmaxpu=1.2 model=1 kW=2.7096273035432676 kvar=0.9427200469116054 Phases=1 yearly=res_kw_804_pu

New Load.load_p13ulv32068_1 conn=wye bus1=p13ulv32068.1 kV=0.12 Vminpu=0.8 Vmaxpu=1.2 model=1 kW=6.567472256430066 kvar=0.9902751727909218 Phases=1 yearly=res_kw_1767_pu

New Load.load_p13ulv32068_2 conn=wye bus1=p13ulv32068.2 kV=0.12 Vminpu=0.8 Vmaxpu=1.2 model=1 kW=6.567472256430066 kvar=0.9902751727909218 Phases=1 yearly=res_kw_1767_pu

New Load.load_p13ulv32071_1 conn=wye bus1=p13ulv32071.1 kV=0.12 Vminpu=0.8 Vmaxpu=1.2 model=1 kW=8.240167411564581 kvar=2.619700445446529 Phases=1 yearly=res_kw_3481_pu

New Load.load_p13ulv32071_2 conn=wye bus1=p13ulv32071.2 kV=0.12 Vminpu=0.8 Vmaxpu=1.2 model=1 kW=8.240167411564581 kvar=2.619700445446529 Phases=1 yearly=res_kw_3481_pu

New Load.load_p13ulv32079_1 conn=wye bus1=p13ulv32079.1 kV=0.12 Vminpu=0.8 Vmaxpu=1.2 model=1 kW=11.329433697950499 kvar=4.306132383010988 Phases=1 yearly=res_kw_9693_pu

New Load.load_p13ulv32079_2 conn=wye bus1=p13ulv32079.2 kV=0.12 Vminpu=0.8 Vmaxpu=1.2 model=1 kW=11.329433697950499 kvar=4.306132383010988 Phases=1 yearly=res_kw_9693_pu

New Load.load_p13ulv32575_1 conn=wye bus1=p13ulv32575.1 kV=0.12 Vminpu=0.8 Vmaxpu=1.2 model=1 kW=3.271531436845787 kvar=0.9687551727849989 Phases=1 yearly=res_kw_5017_pu

New Load.load_p13ulv32575_2 conn=wye bus1=p13ulv32575.2 kV=0.12 Vminpu=0.8 Vmaxpu=1.2 model=1 kW=3.271531436845787 kvar=0.9687551727849989 Phases=1 yearly=res_kw_5017_pu

New Load.load_p13ulv32576_1 conn=wye bus1=p13ulv32576.1 kV=0.12 Vminpu=0.8 Vmaxpu=1.2 model=1 kW=12.811173221959923 kvar=2.6569306125286865 Phases=1 yearly=res_kw_9694_pu

New Load.load_p13ulv32576_2 conn=wye bus1=p13ulv32576.2 kV=0.12 Vminpu=0.8 Vmaxpu=1.2 model=1 kW=12.811173221959923 kvar=2.6569306125286865 Phases=1 yearly=res_kw_9694_pu

New Load.load_p13ulv32577 conn=wye bus1=p13ulv32577.1.2.3 kV=0.48 Vminpu=0.8 Vmaxpu=1.2 model=1 kW=46.373932904741785 kvar=15.518871566820296 Phases=3 yearly=res_kw_7539_pu

New Load.load_p13ulv32578_1 conn=wye bus1=p13ulv32578.1 kV=0.12 Vminpu=0.8 Vmaxpu=1.2 model=1 kW=4.298732967846568 kvar=1.4010470651986036 Phases=1 yearly=res_kw_8466_pu

New Load.load_p13ulv32578_2 conn=wye bus1=p13ulv32578.2 kV=0.12 Vminpu=0.8 Vmaxpu=1.2 model=1 kW=4.298732967846568 kvar=1.4010470651986036 Phases=1 yearly=res_kw_8466_pu

New Load.load_p13ulv32610_1 conn=wye bus1=p13ulv32610.1 kV=0.12 Vminpu=0.8 Vmaxpu=1.2 model=1 kW=5.468346785593834 kvar=3.2776803766300233 Phases=1 yearly=res_kw_180_pu

New Load.load_p13ulv32610_2 conn=wye bus1=p13ulv32610.2 kV=0.12 Vminpu=0.8 Vmaxpu=1.2 model=1 kW=5.468346785593834 kvar=3.2776803766300233 Phases=1 yearly=res_kw_180_pu

New Load.load_p13ulv32611_1 conn=wye bus1=p13ulv32611.1 kV=0.12 Vminpu=0.8 Vmaxpu=1.2 model=1 kW=3.8508726747371775 kvar=1.4075514013755541 Phases=1 yearly=res_kw_4692_pu

New Load.load_p13ulv32611_2 conn=wye bus1=p13ulv32611.2 kV=0.12 Vminpu=0.8 Vmaxpu=1.2 model=1 kW=3.8508726747371775 kvar=1.4075514013755541 Phases=1 yearly=res_kw_4692_pu

New Load.load_p13ulv32612_1 conn=wye bus1=p13ulv32612.1 kV=0.12 Vminpu=0.8 Vmaxpu=1.2 model=1 kW=2.3870849519920267 kvar=0.9718887619447968 Phases=1 yearly=res_kw_2251_pu

New Load.load_p13ulv32612_2 conn=wye bus1=p13ulv32612.2 kV=0.12 Vminpu=0.8 Vmaxpu=1.2 model=1 kW=2.3870849519920267 kvar=0.9718887619447968 Phases=1 yearly=res_kw_2251_pu

New Load.load_p13ulv32613_1 conn=wye bus1=p13ulv32613.1 kV=0.12 Vminpu=0.8 Vmaxpu=1.2 model=1 kW=15.098827504379985 kvar=2.5907703630496695 Phases=1 yearly=res_kw_4247_pu

New Load.load_p13ulv32613_2 conn=wye bus1=p13ulv32613.2 kV=0.12 Vminpu=0.8 Vmaxpu=1.2 model=1 kW=15.098827504379985 kvar=2.5907703630496695 Phases=1 yearly=res_kw_4247_pu

New Load.load_p13ulv32614_1 conn=wye bus1=p13ulv32614.1 kV=0.12 Vminpu=0.8 Vmaxpu=1.2 model=1 kW=5.183716142241537 kvar=1.2666658535858797 Phases=1 yearly=res_kw_12082_pu

New Load.load_p13ulv32614_2 conn=wye bus1=p13ulv32614.2 kV=0.12 Vminpu=0.8 Vmaxpu=1.2 model=1 kW=5.183716142241537 kvar=1.2666658535858797 Phases=1 yearly=res_kw_12082_pu

New Load.load_p13ulv32615_1 conn=wye bus1=p13ulv32615.1 kV=0.12 Vminpu=0.8 Vmaxpu=1.2 model=1 kW=2.637716089207124 kvar=1.4945222990146982 Phases=1 yearly=res_kw_10654_pu

New Load.load_p13ulv32615_2 conn=wye bus1=p13ulv32615.2 kV=0.12 Vminpu=0.8 Vmaxpu=1.2 model=1 kW=2.637716089207124 kvar=1.4945222990146982 Phases=1 yearly=res_kw_10654_pu

New Load.load_p13ulv32616_1 conn=wye bus1=p13ulv32616.1 kV=0.12 Vminpu=0.8 Vmaxpu=1.2 model=1 kW=12.564393901283234 kvar=2.3218300649713264 Phases=1 yearly=res_kw_3883_pu

New Load.load_p13ulv32616_2 conn=wye bus1=p13ulv32616.2 kV=0.12 Vminpu=0.8 Vmaxpu=1.2 model=1 kW=12.564393901283234 kvar=2.3218300649713264 Phases=1 yearly=res_kw_3883_pu

New Load.load_p13ulv32617_1 conn=wye bus1=p13ulv32617.1 kV=0.12 Vminpu=0.8 Vmaxpu=1.2 model=1 kW=2.1716219150394664 kvar=0.8110171519550607 Phases=1 yearly=res_kw_396_pu

New Load.load_p13ulv32617_2 conn=wye bus1=p13ulv32617.2 kV=0.12 Vminpu=0.8 Vmaxpu=1.2 model=1 kW=2.1716219150394664 kvar=0.8110171519550607 Phases=1 yearly=res_kw_396_pu

New Load.load_p13ulv32618_1 conn=wye bus1=p13ulv32618.1 kV=0.12 Vminpu=0.8 Vmaxpu=1.2 model=1 kW=8.020821977815254 kvar=2.0363815702762333 Phases=1 yearly=res_kw_10885_pu

New Load.load_p13ulv32618_2 conn=wye bus1=p13ulv32618.2 kV=0.12 Vminpu=0.8 Vmaxpu=1.2 model=1 kW=8.020821977815254 kvar=2.0363815702762333 Phases=1 yearly=res_kw_10885_pu

New Load.load_p13ulv32619_1 conn=wye bus1=p13ulv32619.1 kV=0.12 Vminpu=0.8 Vmaxpu=1.2 model=1 kW=3.6755133731704053 kvar=0.7539218062909313 Phases=1 yearly=res_kw_13545_pu

New Load.load_p13ulv32619_2 conn=wye bus1=p13ulv32619.2 kV=0.12 Vminpu=0.8 Vmaxpu=1.2 model=1 kW=3.6755133731704053 kvar=0.7539218062909313 Phases=1 yearly=res_kw_13545_pu

New Load.load_p13ulv32620_1 conn=wye bus1=p13ulv32620.1 kV=0.12 Vminpu=0.8 Vmaxpu=1.2 model=1 kW=3.5127978636027604 kvar=0.9794275484237299 Phases=1 yearly=res_kw_12216_pu

New Load.load_p13ulv32620_2 conn=wye bus1=p13ulv32620.2 kV=0.12 Vminpu=0.8 Vmaxpu=1.2 model=1 kW=3.5127978636027604 kvar=0.9794275484237299 Phases=1 yearly=res_kw_12216_pu

New Load.load_p13ulv32621_1 conn=wye bus1=p13ulv32621.1 kV=0.12 Vminpu=0.8 Vmaxpu=1.2 model=1 kW=3.6088116972193562 kvar=0.9962779470797338 Phases=1 yearly=res_kw_23_pu

New Load.load_p13ulv32621_2 conn=wye bus1=p13ulv32621.2 kV=0.12 Vminpu=0.8 Vmaxpu=1.2 model=1 kW=3.6088116972193562 kvar=0.9962779470797338 Phases=1 yearly=res_kw_23_pu

New Load.load_p13ulv32622_1 conn=wye bus1=p13ulv32622.1 kV=0.12 Vminpu=0.8 Vmaxpu=1.2 model=1 kW=12.294784827381186 kvar=3.725662193447185 Phases=1 yearly=res_kw_14821_pu

New Load.load_p13ulv32622_2 conn=wye bus1=p13ulv32622.2 kV=0.12 Vminpu=0.8 Vmaxpu=1.2 model=1 kW=12.294784827381186 kvar=3.725662193447185 Phases=1 yearly=res_kw_14821_pu

New Load.load_p13ulv32627_1 conn=wye bus1=p13ulv32627.1 kV=0.12 Vminpu=0.8 Vmaxpu=1.2 model=1 kW=4.474301594550501 kvar=1.0622966425771128 Phases=1 yearly=res_kw_11420_pu

New Load.load_p13ulv32627_2 conn=wye bus1=p13ulv32627.2 kV=0.12 Vminpu=0.8 Vmaxpu=1.2 model=1 kW=4.474301594550501 kvar=1.0622966425771128 Phases=1 yearly=res_kw_11420_pu

New Load.load_p13ulv32628_1 conn=wye bus1=p13ulv32628.1 kV=0.12 Vminpu=0.8 Vmaxpu=1.2 model=1 kW=7.258188748231595 kvar=2.833344076340693 Phases=1 yearly=res_kw_10614_pu

New Load.load_p13ulv32628_2 conn=wye bus1=p13ulv32628.2 kV=0.12 Vminpu=0.8 Vmaxpu=1.2 model=1 kW=7.258188748231595 kvar=2.833344076340693 Phases=1 yearly=res_kw_10614_pu

New Load.load_p13ulv32630_1 conn=wye bus1=p13ulv32630.1 kV=0.12 Vminpu=0.8 Vmaxpu=1.2 model=1 kW=5.199941671750068 kvar=1.981034681947982 Phases=1 yearly=res_kw_12402_pu

New Load.load_p13ulv32630_2 conn=wye bus1=p13ulv32630.2 kV=0.12 Vminpu=0.8 Vmaxpu=1.2 model=1 kW=5.199941671750068 kvar=1.981034681947982 Phases=1 yearly=res_kw_12402_pu

New Load.load_p13ulv32631_1 conn=wye bus1=p13ulv32631.1 kV=0.12 Vminpu=0.8 Vmaxpu=1.2 model=1 kW=0.5076356951555462 kvar=0.337425526463115 Phases=1 yearly=res_kw_8996_pu

New Load.load_p13ulv32631_2 conn=wye bus1=p13ulv32631.2 kV=0.12 Vminpu=0.8 Vmaxpu=1.2 model=1 kW=0.5076356951555462 kvar=0.337425526463115 Phases=1 yearly=res_kw_8996_pu

New Load.load_p13ulv32632_1 conn=wye bus1=p13ulv32632.1 kV=0.12 Vminpu=0.8 Vmaxpu=1.2 model=1 kW=6.847936157614576 kvar=2.5885098935757385 Phases=1 yearly=res_kw_8861_pu

New Load.load_p13ulv32632_2 conn=wye bus1=p13ulv32632.2 kV=0.12 Vminpu=0.8 Vmaxpu=1.2 model=1 kW=6.847936157614576 kvar=2.5885098935757385 Phases=1 yearly=res_kw_8861_pu

New Load.load_p13ulv32633 conn=wye bus1=p13ulv32633.1.2.3 kV=0.48 Vminpu=0.8 Vmaxpu=1.2 model=1 kW=26.128358317182954 kvar=9.538260399566932 Phases=3 yearly=res_kw_4894_pu

New Load.load_p13ulv32634_1 conn=wye bus1=p13ulv32634.1 kV=0.12 Vminpu=0.8 Vmaxpu=1.2 model=1 kW=3.747948820259464 kvar=0.8986280181010884 Phases=1 yearly=res_kw_2544_pu

New Load.load_p13ulv32634_2 conn=wye bus1=p13ulv32634.2 kV=0.12 Vminpu=0.8 Vmaxpu=1.2 model=1 kW=3.747948820259464 kvar=0.8986280181010884 Phases=1 yearly=res_kw_2544_pu

New Load.load_p13ulv32635_1 conn=wye bus1=p13ulv32635.1 kV=0.12 Vminpu=0.8 Vmaxpu=1.2 model=1 kW=10.695184662852425 kvar=3.4971606464353755 Phases=1 yearly=res_kw_12375_pu

New Load.load_p13ulv32635_2 conn=wye bus1=p13ulv32635.2 kV=0.12 Vminpu=0.8 Vmaxpu=1.2 model=1 kW=10.695184662852425 kvar=3.4971606464353755 Phases=1 yearly=res_kw_12375_pu

New Load.load_p13ulv32636 conn=wye bus1=p13ulv32636.1.2.3 kV=0.48 Vminpu=0.8 Vmaxpu=1.2 model=1 kW=68.16062367940367 kvar=17.748980941503106 Phases=3 yearly=res_kw_14078_pu

New Load.load_p13ulv32641_1 conn=wye bus1=p13ulv32641.1 kV=0.12 Vminpu=0.8 Vmaxpu=1.2 model=1 kW=17.118856439332312 kvar=0.5555118791410775 Phases=1 yearly=res_kw_9991_pu

New Load.load_p13ulv32641_2 conn=wye bus1=p13ulv32641.2 kV=0.12 Vminpu=0.8 Vmaxpu=1.2 model=1 kW=17.118856439332312 kvar=0.5555118791410775 Phases=1 yearly=res_kw_9991_pu

New Load.load_p13ulv32642_1 conn=wye bus1=p13ulv32642.1 kV=0.12 Vminpu=0.8 Vmaxpu=1.2 model=1 kW=19.775302103970787 kvar=4.010197131409202 Phases=1 yearly=res_kw_12611_pu

New Load.load_p13ulv32642_2 conn=wye bus1=p13ulv32642.2 kV=0.12 Vminpu=0.8 Vmaxpu=1.2 model=1 kW=19.775302103970787 kvar=4.010197131409202 Phases=1 yearly=res_kw_12611_pu

New Load.load_p13ulv32643_1 conn=wye bus1=p13ulv32643.1 kV=0.12 Vminpu=0.8 Vmaxpu=1.2 model=1 kW=2.765757037534008 kvar=1.8516274327724092 Phases=1 yearly=res_kw_1930_pu

New Load.load_p13ulv32643_2 conn=wye bus1=p13ulv32643.2 kV=0.12 Vminpu=0.8 Vmaxpu=1.2 model=1 kW=2.765757037534008 kvar=1.8516274327724092 Phases=1 yearly=res_kw_1930_pu

New Load.load_p13ulv32644_1 conn=wye bus1=p13ulv32644.1 kV=0.12 Vminpu=0.8 Vmaxpu=1.2 model=1 kW=2.5311527837443233 kvar=1.1137964472047237 Phases=1 yearly=res_kw_10025_pu

New Load.load_p13ulv32644_2 conn=wye bus1=p13ulv32644.2 kV=0.12 Vminpu=0.8 Vmaxpu=1.2 model=1 kW=2.5311527837443233 kvar=1.1137964472047237 Phases=1 yearly=res_kw_10025_pu

New Load.load_p13ulv32645_1 conn=wye bus1=p13ulv32645.1 kV=0.12 Vminpu=0.8 Vmaxpu=1.2 model=1 kW=8.04713013298008 kvar=1.3858021501394042 Phases=1 yearly=res_kw_9257_pu

New Load.load_p13ulv32645_2 conn=wye bus1=p13ulv32645.2 kV=0.12 Vminpu=0.8 Vmaxpu=1.2 model=1 kW=8.04713013298008 kvar=1.3858021501394042 Phases=1 yearly=res_kw_9257_pu

New Load.load_p13ulv32646_1 conn=wye bus1=p13ulv32646.1 kV=0.12 Vminpu=0.8 Vmaxpu=1.2 model=1 kW=30.251773300079197 kvar=4.962226170318591 Phases=1 yearly=res_kw_4285_pu

New Load.load_p13ulv32646_2 conn=wye bus1=p13ulv32646.2 kV=0.12 Vminpu=0.8 Vmaxpu=1.2 model=1 kW=30.251773300079197 kvar=4.962226170318591 Phases=1 yearly=res_kw_4285_pu

New Load.load_p13ulv32647_1 conn=wye bus1=p13ulv32647.1 kV=0.12 Vminpu=0.8 Vmaxpu=1.2 model=1 kW=4.86294663255661 kvar=0.3017265649675267 Phases=1 yearly=res_kw_4599_pu

New Load.load_p13ulv32647_2 conn=wye bus1=p13ulv32647.2 kV=0.12 Vminpu=0.8 Vmaxpu=1.2 model=1 kW=4.86294663255661 kvar=0.3017265649675267 Phases=1 yearly=res_kw_4599_pu

New Load.load_p13ulv32648_1 conn=wye bus1=p13ulv32648.1 kV=0.12 Vminpu=0.8 Vmaxpu=1.2 model=1 kW=8.340839107573792 kvar=0.3253569874686729 Phases=1 yearly=res_kw_3600_pu

New Load.load_p13ulv32648_2 conn=wye bus1=p13ulv32648.2 kV=0.12 Vminpu=0.8 Vmaxpu=1.2 model=1 kW=8.340839107573792 kvar=0.3253569874686729 Phases=1 yearly=res_kw_3600_pu

New Load.load_p13ulv32649_1 conn=wye bus1=p13ulv32649.1 kV=0.12 Vminpu=0.8 Vmaxpu=1.2 model=1 kW=5.3703768293909055 kvar=1.6218600037917759 Phases=1 yearly=res_kw_10414_pu

New Load.load_p13ulv32649_2 conn=wye bus1=p13ulv32649.2 kV=0.12 Vminpu=0.8 Vmaxpu=1.2 model=1 kW=5.3703768293909055 kvar=1.6218600037917759 Phases=1 yearly=res_kw_10414_pu

New Load.load_p13ulv32650_1 conn=wye bus1=p13ulv32650.1 kV=0.12 Vminpu=0.8 Vmaxpu=1.2 model=1 kW=2.01639828281872 kvar=0.8604374876546221 Phases=1 yearly=res_kw_3899_pu

New Load.load_p13ulv32650_2 conn=wye bus1=p13ulv32650.2 kV=0.12 Vminpu=0.8 Vmaxpu=1.2 model=1 kW=2.01639828281872 kvar=0.8604374876546221 Phases=1 yearly=res_kw_3899_pu

New Load.load_p13ulv32651_1 conn=wye bus1=p13ulv32651.1 kV=0.12 Vminpu=0.8 Vmaxpu=1.2 model=1 kW=1.9833972076441928 kvar=0.7050587767625319 Phases=1 yearly=res_kw_6979_pu

New Load.load_p13ulv32651_2 conn=wye bus1=p13ulv32651.2 kV=0.12 Vminpu=0.8 Vmaxpu=1.2 model=1 kW=1.9833972076441928 kvar=0.7050587767625319 Phases=1 yearly=res_kw_6979_pu

New Load.load_p13ulv32652_1 conn=wye bus1=p13ulv32652.1 kV=0.12 Vminpu=0.8 Vmaxpu=1.2 model=1 kW=8.246291489026653 kvar=1.8794976823039553 Phases=1 yearly=res_kw_7726_pu

New Load.load_p13ulv32652_2 conn=wye bus1=p13ulv32652.2 kV=0.12 Vminpu=0.8 Vmaxpu=1.2 model=1 kW=8.246291489026653 kvar=1.8794976823039553 Phases=1 yearly=res_kw_7726_pu

New Load.load_p13ulv32653_1 conn=wye bus1=p13ulv32653.1 kV=0.12 Vminpu=0.8 Vmaxpu=1.2 model=1 kW=6.906167264334189 kvar=1.6396271849577984 Phases=1 yearly=res_kw_5413_pu

New Load.load_p13ulv32653_2 conn=wye bus1=p13ulv32653.2 kV=0.12 Vminpu=0.8 Vmaxpu=1.2 model=1 kW=6.906167264334189 kvar=1.6396271849577984 Phases=1 yearly=res_kw_5413_pu

New Load.load_p13ulv32657_1 conn=wye bus1=p13ulv32657.1 kV=0.12 Vminpu=0.8 Vmaxpu=1.2 model=1 kW=3.976923980195794 kvar=1.3468937884134722 Phases=1 yearly=res_kw_4012_pu

New Load.load_p13ulv32657_2 conn=wye bus1=p13ulv32657.2 kV=0.12 Vminpu=0.8 Vmaxpu=1.2 model=1 kW=3.976923980195794 kvar=1.3468937884134722 Phases=1 yearly=res_kw_4012_pu

New Load.load_p13ulv32709_1 conn=wye bus1=p13ulv32709.1 kV=0.12 Vminpu=0.8 Vmaxpu=1.2 model=1 kW=4.877325844100214 kvar=1.312926465515921 Phases=1 yearly=res_kw_2365_pu

New Load.load_p13ulv32709_2 conn=wye bus1=p13ulv32709.2 kV=0.12 Vminpu=0.8 Vmaxpu=1.2 model=1 kW=4.877325844100214 kvar=1.312926465515921 Phases=1 yearly=res_kw_2365_pu

New Load.load_p13ulv32710_1 conn=wye bus1=p13ulv32710.1 kV=0.12 Vminpu=0.8 Vmaxpu=1.2 model=1 kW=5.3703768293909055 kvar=1.6218600037917759 Phases=1 yearly=res_kw_10414_pu

New Load.load_p13ulv32710_2 conn=wye bus1=p13ulv32710.2 kV=0.12 Vminpu=0.8 Vmaxpu=1.2 model=1 kW=5.3703768293909055 kvar=1.6218600037917759 Phases=1 yearly=res_kw_10414_pu

New Load.load_p13ulv32717_1 conn=wye bus1=p13ulv32717.1 kV=0.12 Vminpu=0.8 Vmaxpu=1.2 model=1 kW=4.5422629408535515 kvar=1.3697776046210222 Phases=1 yearly=res_kw_7785_pu

New Load.load_p13ulv32717_2 conn=wye bus1=p13ulv32717.2 kV=0.12 Vminpu=0.8 Vmaxpu=1.2 model=1 kW=4.5422629408535515 kvar=1.3697776046210222 Phases=1 yearly=res_kw_7785_pu

New Load.load_p13ulv32718_1 conn=wye bus1=p13ulv32718.1 kV=0.12 Vminpu=0.8 Vmaxpu=1.2 model=1 kW=2.01639828281872 kvar=0.8604374876546221 Phases=1 yearly=res_kw_3899_pu

New Load.load_p13ulv32718_2 conn=wye bus1=p13ulv32718.2 kV=0.12 Vminpu=0.8 Vmaxpu=1.2 model=1 kW=2.01639828281872 kvar=0.8604374876546221 Phases=1 yearly=res_kw_3899_pu

New Load.load_p13ulv32727_1 conn=wye bus1=p13ulv32727.1 kV=0.12 Vminpu=0.8 Vmaxpu=1.2 model=1 kW=3.889841903483712 kvar=1.5931494245988322 Phases=1 yearly=res_kw_11212_pu

New Load.load_p13ulv32727_2 conn=wye bus1=p13ulv32727.2 kV=0.12 Vminpu=0.8 Vmaxpu=1.2 model=1 kW=3.889841903483712 kvar=1.5931494245988322 Phases=1 yearly=res_kw_11212_pu

New Load.load_p13ulv32728_1 conn=wye bus1=p13ulv32728.1 kV=0.12 Vminpu=0.8 Vmaxpu=1.2 model=1 kW=4.59957743308055 kvar=0.20646649165522005 Phases=1 yearly=res_kw_7581_pu

New Load.load_p13ulv32728_2 conn=wye bus1=p13ulv32728.2 kV=0.12 Vminpu=0.8 Vmaxpu=1.2 model=1 kW=4.59957743308055 kvar=0.20646649165522005 Phases=1 yearly=res_kw_7581_pu

New Load.load_p13ulv32729_1 conn=wye bus1=p13ulv32729.1 kV=0.12 Vminpu=0.8 Vmaxpu=1.2 model=1 kW=18.981411575978587 kvar=1.8375869760975903 Phases=1 yearly=res_kw_1079_pu

New Load.load_p13ulv32729_2 conn=wye bus1=p13ulv32729.2 kV=0.12 Vminpu=0.8 Vmaxpu=1.2 model=1 kW=18.981411575978587 kvar=1.8375869760975903 Phases=1 yearly=res_kw_1079_pu

New Load.load_p13ulv32730_1 conn=wye bus1=p13ulv32730.1 kV=0.12 Vminpu=0.8 Vmaxpu=1.2 model=1 kW=6.356733264735675 kvar=2.5426304844975705 Phases=1 yearly=res_kw_10991_pu

New Load.load_p13ulv32730_2 conn=wye bus1=p13ulv32730.2 kV=0.12 Vminpu=0.8 Vmaxpu=1.2 model=1 kW=6.356733264735675 kvar=2.5426304844975705 Phases=1 yearly=res_kw_10991_pu

New Load.load_p13ulv32731_1 conn=wye bus1=p13ulv32731.1 kV=0.12 Vminpu=0.8 Vmaxpu=1.2 model=1 kW=2.295203517977439 kvar=0.8287080631523206 Phases=1 yearly=res_kw_753_pu

New Load.load_p13ulv32731_2 conn=wye bus1=p13ulv32731.2 kV=0.12 Vminpu=0.8 Vmaxpu=1.2 model=1 kW=2.295203517977439 kvar=0.8287080631523206 Phases=1 yearly=res_kw_753_pu

New Load.load_p13ulv32732 conn=wye bus1=p13ulv32732.1.2.3 kV=0.48 Vminpu=0.8 Vmaxpu=1.2 model=1 kW=44.31545000691777 kvar=8.649797765462376 Phases=3 yearly=res_kw_12323_pu

New Load.load_p13ulv32733 conn=wye bus1=p13ulv32733.1.2.3 kV=0.48 Vminpu=0.8 Vmaxpu=1.2 model=1 kW=46.57807821074901 kvar=16.501601495170025 Phases=3 yearly=res_kw_9393_pu

New Load.load_p13ulv32734_1 conn=wye bus1=p13ulv32734.1 kV=0.12 Vminpu=0.8 Vmaxpu=1.2 model=1 kW=4.818303466698309 kvar=1.1725609808818283 Phases=1 yearly=res_kw_14283_pu

New Load.load_p13ulv32734_2 conn=wye bus1=p13ulv32734.2 kV=0.12 Vminpu=0.8 Vmaxpu=1.2 model=1 kW=4.818303466698309 kvar=1.1725609808818283 Phases=1 yearly=res_kw_14283_pu

New Load.load_p13ulv32735_1 conn=wye bus1=p13ulv32735.1 kV=0.12 Vminpu=0.8 Vmaxpu=1.2 model=1 kW=11.191069958609534 kvar=0.4876542082694717 Phases=1 yearly=res_kw_5057_pu

New Load.load_p13ulv32735_2 conn=wye bus1=p13ulv32735.2 kV=0.12 Vminpu=0.8 Vmaxpu=1.2 model=1 kW=11.191069958609534 kvar=0.4876542082694717 Phases=1 yearly=res_kw_5057_pu

New Load.load_p13ulv32736_1 conn=wye bus1=p13ulv32736.1 kV=0.12 Vminpu=0.8 Vmaxpu=1.2 model=1 kW=19.701629972137308 kvar=4.53513227289353 Phases=1 yearly=res_kw_1970_pu

New Load.load_p13ulv32736_2 conn=wye bus1=p13ulv32736.2 kV=0.12 Vminpu=0.8 Vmaxpu=1.2 model=1 kW=19.701629972137308 kvar=4.53513227289353 Phases=1 yearly=res_kw_1970_pu

New Load.load_p13ulv32737_1 conn=wye bus1=p13ulv32737.1 kV=0.12 Vminpu=0.8 Vmaxpu=1.2 model=1 kW=4.221840555495304 kvar=1.8961769582404246 Phases=1 yearly=res_kw_996_pu

New Load.load_p13ulv32737_2 conn=wye bus1=p13ulv32737.2 kV=0.12 Vminpu=0.8 Vmaxpu=1.2 model=1 kW=4.221840555495304 kvar=1.8961769582404246 Phases=1 yearly=res_kw_996_pu

New Load.load_p13ulv32738_1 conn=wye bus1=p13ulv32738.1 kV=0.12 Vminpu=0.8 Vmaxpu=1.2 model=1 kW=5.328644770718061 kvar=1.6025471940288623 Phases=1 yearly=res_kw_5440_pu

New Load.load_p13ulv32738_2 conn=wye bus1=p13ulv32738.2 kV=0.12 Vminpu=0.8 Vmaxpu=1.2 model=1 kW=5.328644770718061 kvar=1.6025471940288623 Phases=1 yearly=res_kw_5440_pu

New Load.load_p13ulv32739_1 conn=wye bus1=p13ulv32739.1 kV=0.12 Vminpu=0.8 Vmaxpu=1.2 model=1 kW=1.6255397625555168 kvar=0.5618365940178538 Phases=1 yearly=res_kw_10035_pu

New Load.load_p13ulv32739_2 conn=wye bus1=p13ulv32739.2 kV=0.12 Vminpu=0.8 Vmaxpu=1.2 model=1 kW=1.6255397625555168 kvar=0.5618365940178538 Phases=1 yearly=res_kw_10035_pu

New Load.load_p13ulv32740_1 conn=wye bus1=p13ulv32740.1 kV=0.12 Vminpu=0.8 Vmaxpu=1.2 model=1 kW=3.170192304086324 kvar=2.117836758643476 Phases=1 yearly=res_kw_6037_pu

New Load.load_p13ulv32740_2 conn=wye bus1=p13ulv32740.2 kV=0.12 Vminpu=0.8 Vmaxpu=1.2 model=1 kW=3.170192304086324 kvar=2.117836758643476 Phases=1 yearly=res_kw_6037_pu

New Load.load_p13ulv32741_1 conn=wye bus1=p13ulv32741.1 kV=0.12 Vminpu=0.8 Vmaxpu=1.2 model=1 kW=32.39674986674201 kvar=1.4078370005810286 Phases=1 yearly=res_kw_3985_pu

New Load.load_p13ulv32741_2 conn=wye bus1=p13ulv32741.2 kV=0.12 Vminpu=0.8 Vmaxpu=1.2 model=1 kW=32.39674986674201 kvar=1.4078370005810286 Phases=1 yearly=res_kw_3985_pu
