New Line.line_p13ulv32382_cs_265 Units=km Length=2.907451255650159e-07 bus1=p13ulv32382.1.2 bus2=p13ulv32382_cs_265.1.2 switch=n enabled=y Linecode=3P_UG_AL_350kcmil_3_2
 
New Transformer.ts(r:p13ulv32382_cs_265-bus_cs_277_946_public_publicfc1500dc) phases=3 windings=2 %loadloss=1.6 wdg=1 conn=wye Kv=12.47 kva=300.0 %R=0.91198 bus=p13ulv32382_cs_265 wdg=2 conn=wye Kv=0.208 kva=10.4 %R=0.91198 bus=bus_cs_277_946_public_publicfc1500dc XHL=3.39 
New Load.load_cs_277_946_public_publicfc1500dc conn=wye bus1=bus_cs_277_946_public_publicfc1500dc kV=0.208 Vminpu=0.8 Vmaxpu=1.2 model=1 kW=.001 kvar=0.0002 Phases=2 
New Line.line_bus_cs_279_946_public_publicfc1500dc Units=km Length=1.4349042485260754e-07 bus1=p13ulv32447.1.2 bus2=bus_cs_279_946_public_publicfc1500dc.1.2 switch=n enabled=y Linecode=1P_OH_AL_2/0_Rucina_2
 
New Load.load_cs_279_946_public_publicfc1500dc conn=wye bus1=bus_cs_279_946_public_publicfc1500dc kV=0.208 Vminpu=0.8 Vmaxpu=1.2 model=1 kW=.001 kvar=0.0002 Phases=2 
New Line.line_p13udt15314-p13udt27624x_cs_268 Units=km Length=2.9563267977809774e-07 bus1=p13udt15314-p13udt27624x.1.2 bus2=p13udt15314-p13udt27624x_cs_268.1.2 switch=n enabled=y Linecode=3P_OH_AL_ACSR_1033kcmil_Curlew_3
 
New Transformer.ts(r:p13udt15314-p13udt27624x_cs_268-bus_cs_280_946_public_publicfc1500dc) phases=3 windings=2 %loadloss=1.6 wdg=1 conn=wye Kv=12.47 kva=300.0 %R=0.91198 bus=p13udt15314-p13udt27624x_cs_268 wdg=2 conn=wye Kv=0.208 kva=10.4 %R=0.91198 bus=bus_cs_280_946_public_publicfc1500dc XHL=3.39 
New Load.load_cs_280_946_public_publicfc1500dc conn=wye bus1=bus_cs_280_946_public_publicfc1500dc kV=0.208 Vminpu=0.8 Vmaxpu=1.2 model=1 kW=.001 kvar=0.0002 Phases=2 
New Line.line_bus_cs_292_946_public_publiclevel272ac Units=km Length=9.187039759077533e-08 bus1=p13ulv32453.1.2 bus2=bus_cs_292_946_public_publiclevel272ac.1.2 switch=n enabled=y Linecode=1P_UG_AL_1/0_Brenau_2
 
New Load.load_cs_292_946_public_publiclevel272ac conn=wye bus1=bus_cs_292_946_public_publiclevel272ac kV=0.208 Vminpu=0.8 Vmaxpu=1.2 model=1 kW=.001 kvar=0.0002 Phases=2 
New Line.line_bus_cs_294_946_public_publiclevel272ac Units=km Length=1.6101599277918586e-07 bus1=p13ulv32387.1.2 bus2=bus_cs_294_946_public_publiclevel272ac.1.2 switch=n enabled=y Linecode=1P_UG_AL_1/0_Brenau_2
 
New Load.load_cs_294_946_public_publiclevel272ac conn=wye bus1=bus_cs_294_946_public_publiclevel272ac kV=0.208 Vminpu=0.8 Vmaxpu=1.2 model=1 kW=.001 kvar=0.0002 Phases=2 
New Line.line_bus_cs_332_946_public_publiclevel272ac Units=km Length=7.682253287942474e-08 bus1=p13ulv32455.1.2 bus2=bus_cs_332_946_public_publiclevel272ac.1.2 switch=n enabled=y Linecode=1P_OH_AL_2/0_Rucina_2
 
New Load.load_cs_332_946_public_publiclevel272ac conn=wye bus1=bus_cs_332_946_public_publiclevel272ac kV=0.208 Vminpu=0.8 Vmaxpu=1.2 model=1 kW=.001 kvar=0.0002 Phases=2 
New Line.line_bus_cs_334_946_public_publiclevel272ac Units=km Length=1.475543825498911e-07 bus1=p13ulv98087.1.2 bus2=bus_cs_334_946_public_publiclevel272ac.1.2 switch=n enabled=y Linecode=1P_OH_AL_2/0_Rucina_2
 
New Load.load_cs_334_946_public_publiclevel272ac conn=wye bus1=bus_cs_334_946_public_publiclevel272ac kV=0.208 Vminpu=0.8 Vmaxpu=1.2 model=1 kW=.001 kvar=0.0002 Phases=2 
New Line.line_bus_cs_335_946_public_publiclevel272ac Units=km Length=2.161937497251611e-07 bus1=p13ulv18855.1.2 bus2=bus_cs_335_946_public_publiclevel272ac.1.2 switch=n enabled=y Linecode=1P_OH_AL_2/0_Rucina_2
 
New Load.load_cs_335_946_public_publiclevel272ac conn=wye bus1=bus_cs_335_946_public_publiclevel272ac kV=0.208 Vminpu=0.8 Vmaxpu=1.2 model=1 kW=.001 kvar=0.0002 Phases=2 
New Line.line_bus_cs_338_946_public_publiclevel272ac Units=km Length=5.162606722621498e-08 bus1=p13udm36838.1.2 bus2=bus_cs_338_946_public_publiclevel272ac.1.2 switch=n enabled=y Linecode=1P_OH_AL_4/0_Zuzara_2
 
New Load.load_cs_338_946_public_publiclevel272ac conn=wye bus1=bus_cs_338_946_public_publiclevel272ac kV=0.208 Vminpu=0.8 Vmaxpu=1.2 model=1 kW=.001 kvar=0.0002 Phases=2 
New Line.line_bus_cs_344_946_public_publiclevel272ac Units=km Length=1.6519215621031987e-07 bus1=p13ulv18856.1.2 bus2=bus_cs_344_946_public_publiclevel272ac.1.2 switch=n enabled=y Linecode=1P_UG_AL_4/0_Sweetbriar_2
 
New Load.load_cs_344_946_public_publiclevel272ac conn=wye bus1=bus_cs_344_946_public_publiclevel272ac kV=0.208 Vminpu=0.8 Vmaxpu=1.2 model=1 kW=.001 kvar=0.0002 Phases=2 
New Line.line_p13ulv98046_cs_290 Units=km Length=5.203520275495296e-07 bus1=p13ulv98046.1.2 bus2=p13ulv98046_cs_290.1.2 switch=n enabled=y Linecode=3P_UG_AL_350kcmil_3_2
 
New Transformer.ts(r:p13ulv98046_cs_290-bus_cs_346_946_public_publiclevel272ac) phases=3 windings=2 %loadloss=1.6 wdg=1 conn=wye Kv=12.47 kva=300.0 %R=0.91198 bus=p13ulv98046_cs_290 wdg=2 conn=wye Kv=0.208 kva=10.4 %R=0.91198 bus=bus_cs_346_946_public_publiclevel272ac XHL=3.39 
New Load.load_cs_346_946_public_publiclevel272ac conn=wye bus1=bus_cs_346_946_public_publiclevel272ac kV=0.208 Vminpu=0.8 Vmaxpu=1.2 model=1 kW=.001 kvar=0.0002 Phases=2 
New Line.line_p13ulv32440_cs_298 Units=km Length=1.1413354954971468e-07 bus1=p13ulv32440.1.2 bus2=p13ulv32440_cs_298.1.2 switch=n enabled=y Linecode=3P_UG_AL_350kcmil_3_2
 
New Transformer.ts(r:p13ulv32440_cs_298-bus_cs_366_946_public_publiclevel272ac) phases=3 windings=2 %loadloss=1.6 wdg=1 conn=wye Kv=12.47 kva=300.0 %R=0.91198 bus=p13ulv32440_cs_298 wdg=2 conn=wye Kv=0.208 kva=10.4 %R=0.91198 bus=bus_cs_366_946_public_publiclevel272ac XHL=3.39 
New Load.load_cs_366_946_public_publiclevel272ac conn=wye bus1=bus_cs_366_946_public_publiclevel272ac kV=0.208 Vminpu=0.8 Vmaxpu=1.2 model=1 kW=.001 kvar=0.0002 Phases=2 
New Line.line_p13udt25142lv_cs_300 Units=km Length=1.5891952852049807e-07 bus1=p13udt25142lv.1.2 bus2=p13udt25142lv_cs_300.1.2 switch=n enabled=y Linecode=3P_UG_AL_750kcmil_3_4
 
New Transformer.ts(r:p13udt25142lv_cs_300-bus_cs_380_946_workplace_worklevel272ac) phases=3 windings=2 %loadloss=1.6 wdg=1 conn=wye Kv=12.47 kva=300.0 %R=0.91198 bus=p13udt25142lv_cs_300 wdg=2 conn=wye Kv=0.208 kva=10.4 %R=0.91198 bus=bus_cs_380_946_workplace_worklevel272ac XHL=3.39 
New Load.load_cs_380_946_workplace_worklevel272ac conn=wye bus1=bus_cs_380_946_workplace_worklevel272ac kV=0.208 Vminpu=0.8 Vmaxpu=1.2 model=1 kW=.001 kvar=0.0002 Phases=2 
New Line.line_bus_cs_383_946_workplace_worklevel272ac Units=km Length=1.4031097211237488e-07 bus1=p13ulv19422.1.2 bus2=bus_cs_383_946_workplace_worklevel272ac.1.2 switch=n enabled=y Linecode=1P_OH_AL_2/0_Rucina_2
 
New Load.load_cs_383_946_workplace_worklevel272ac conn=wye bus1=bus_cs_383_946_workplace_worklevel272ac kV=0.208 Vminpu=0.8 Vmaxpu=1.2 model=1 kW=.001 kvar=0.0002 Phases=2 
New Line.line_bus_cs_387_946_workplace_worklevel272ac Units=km Length=1.7623255300976204e-07 bus1=p13ulv18815.1.2 bus2=bus_cs_387_946_workplace_worklevel272ac.1.2 switch=n enabled=y Linecode=1P_OH_AL_2/0_Rucina_2
 
New Load.load_cs_387_946_workplace_worklevel272ac conn=wye bus1=bus_cs_387_946_workplace_worklevel272ac kV=0.208 Vminpu=0.8 Vmaxpu=1.2 model=1 kW=.001 kvar=0.0002 Phases=2 
New Line.line_p13ulv18797_cs_309 Units=km Length=2.1416332462395967e-07 bus1=p13ulv18797.1.2 bus2=p13ulv18797_cs_309.1.2 switch=n enabled=y Linecode=3P_UG_AL_350kcmil_3_2
 
New Transformer.ts(r:p13ulv18797_cs_309-bus_cs_391_946_workplace_worklevel272ac) phases=3 windings=2 %loadloss=1.6 wdg=1 conn=wye Kv=12.47 kva=300.0 %R=0.91198 bus=p13ulv18797_cs_309 wdg=2 conn=wye Kv=0.208 kva=10.4 %R=0.91198 bus=bus_cs_391_946_workplace_worklevel272ac XHL=3.39 
New Load.load_cs_391_946_workplace_worklevel272ac conn=wye bus1=bus_cs_391_946_workplace_worklevel272ac kV=0.208 Vminpu=0.8 Vmaxpu=1.2 model=1 kW=.001 kvar=0.0002 Phases=2 
New Line.line_bus_cs_394_946_workplace_worklevel272ac Units=km Length=1.0726828937082264e-08 bus1=p13ulv18817.1.2 bus2=bus_cs_394_946_workplace_worklevel272ac.1.2 switch=n enabled=y Linecode=1P_OH_AL_2/0_Rucina_2
 
New Load.load_cs_394_946_workplace_worklevel272ac conn=wye bus1=bus_cs_394_946_workplace_worklevel272ac kV=0.208 Vminpu=0.8 Vmaxpu=1.2 model=1 kW=.001 kvar=0.0002 Phases=2 
New Line.line_bus_cs_432_946_workplace_worklevel272ac Units=km Length=1.192753347406076e-07 bus1=p13ulv18803.1.2 bus2=bus_cs_432_946_workplace_worklevel272ac.1.2 switch=n enabled=y Linecode=1P_OH_AL_2/0_Rucina_2
 
New Load.load_cs_432_946_workplace_worklevel272ac conn=wye bus1=bus_cs_432_946_workplace_worklevel272ac kV=0.208 Vminpu=0.8 Vmaxpu=1.2 model=1 kW=.001 kvar=0.0002 Phases=2 
New Line.line_bus_cs_465_946_workplace_worklevel272ac Units=km Length=1.7744803692989473e-07 bus1=p13ulv85130.1.2 bus2=bus_cs_465_946_workplace_worklevel272ac.1.2 switch=n enabled=y Linecode=1P_OH_AL_2/0_Rucina_2
 
New Load.load_cs_465_946_workplace_worklevel272ac conn=wye bus1=bus_cs_465_946_workplace_worklevel272ac kV=0.208 Vminpu=0.8 Vmaxpu=1.2 model=1 kW=.001 kvar=0.0002 Phases=2 
New Line.line_p13ulv19415_cs_343 Units=km Length=1.388730608673834e-07 bus1=p13ulv19415.1.2 bus2=p13ulv19415_cs_343.1.2 switch=n enabled=y Linecode=3P_UG_AL_350kcmil_3_2
 
New Transformer.ts(r:p13ulv19415_cs_343-bus_cs_482_946_workplace_worklevel272ac) phases=3 windings=2 %loadloss=1.6 wdg=1 conn=wye Kv=12.47 kva=300.0 %R=0.91198 bus=p13ulv19415_cs_343 wdg=2 conn=wye Kv=0.208 kva=10.4 %R=0.91198 bus=bus_cs_482_946_workplace_worklevel272ac XHL=3.39 
New Load.load_cs_482_946_workplace_worklevel272ac conn=wye bus1=bus_cs_482_946_workplace_worklevel272ac kV=0.208 Vminpu=0.8 Vmaxpu=1.2 model=1 kW=.001 kvar=0.0002 Phases=2 
New Line.line_bus_cs_732_946_workplace_worklevel272ac Units=km Length=1.515272122153937e-07 bus1=p13ulv83290.1.2 bus2=bus_cs_732_946_workplace_worklevel272ac.1.2 switch=n enabled=y Linecode=1P_OH_AL_2/0_Rucina_2
 
New Load.load_cs_732_946_workplace_worklevel272ac conn=wye bus1=bus_cs_732_946_workplace_worklevel272ac kV=0.208 Vminpu=0.8 Vmaxpu=1.2 model=1 kW=.001 kvar=0.0002 Phases=2 
New Line.line_p13ulv32397_cs_464 Units=km Length=3.3718523683577185e-07 bus1=p13ulv32397.1.2 bus2=p13ulv32397_cs_464.1.2 switch=n enabled=y Linecode=3P_UG_AL_750kcmil_3_4
 
New Transformer.ts(r:p13ulv32397_cs_464-bus_cs_566_947_workplace_worklevel272ac) phases=3 windings=2 %loadloss=1.6 wdg=1 conn=wye Kv=12.47 kva=300.0 %R=0.91198 bus=p13ulv32397_cs_464 wdg=2 conn=wye Kv=0.208 kva=10.4 %R=0.91198 bus=bus_cs_566_947_workplace_worklevel272ac XHL=3.39 
New Load.load_cs_566_947_workplace_worklevel272ac conn=wye bus1=bus_cs_566_947_workplace_worklevel272ac kV=0.208 Vminpu=0.8 Vmaxpu=1.2 model=1 kW=.001 kvar=0.0002 Phases=2 
New Line.line_bus_cs_115_968_public_publicfc1500dc Units=km Length=1.5906695846536452e-07 bus1=p13udt8646lv.1.2 bus2=bus_cs_115_968_public_publicfc1500dc.1.2 switch=n enabled=y Linecode=1P_OH_AL_2/0_Rucina_2
 
New Load.load_cs_115_968_public_publicfc1500dc conn=wye bus1=bus_cs_115_968_public_publicfc1500dc kV=0.208 Vminpu=0.8 Vmaxpu=1.2 model=1 kW=.001 kvar=0.0002 Phases=2 
New Line.line_p13ulv18994_cs_1153 Units=km Length=1.960427061401973e-07 bus1=p13ulv18994.1.2 bus2=p13ulv18994_cs_1153.1.2 switch=n enabled=y Linecode=3P_UG_AL_350kcmil_3_2
 
New Transformer.ts(r:p13ulv18994_cs_1153-bus_cs_117_968_public_publicfc1500dc) phases=3 windings=2 %loadloss=1.6 wdg=1 conn=wye Kv=12.47 kva=300.0 %R=0.91198 bus=p13ulv18994_cs_1153 wdg=2 conn=wye Kv=0.208 kva=10.4 %R=0.91198 bus=bus_cs_117_968_public_publicfc1500dc XHL=3.39 
New Load.load_cs_117_968_public_publicfc1500dc conn=wye bus1=bus_cs_117_968_public_publicfc1500dc kV=0.208 Vminpu=0.8 Vmaxpu=1.2 model=1 kW=.001 kvar=0.0002 Phases=2 
New Line.line_bus_cs_146_968_public_publiclevel272ac Units=km Length=8.806482870823676e-08 bus1=p13ulv18852.1.2 bus2=bus_cs_146_968_public_publiclevel272ac.1.2 switch=n enabled=y Linecode=1P_OH_AL_2/0_Rucina_2
 
New Load.load_cs_146_968_public_publiclevel272ac conn=wye bus1=bus_cs_146_968_public_publiclevel272ac kV=0.208 Vminpu=0.8 Vmaxpu=1.2 model=1 kW=.001 kvar=0.0002 Phases=2 
New Line.line_p13ulv18884_cs_1163 Units=km Length=2.2774701643030146e-07 bus1=p13ulv18884.1.2 bus2=p13ulv18884_cs_1163.1.2 switch=n enabled=y Linecode=3P_UG_AL_750kcmil_3_4
 
New Transformer.ts(r:p13ulv18884_cs_1163-bus_cs_158_968_public_publiclevel272ac) phases=3 windings=2 %loadloss=1.6 wdg=1 conn=wye Kv=12.47 kva=300.0 %R=0.91198 bus=p13ulv18884_cs_1163 wdg=2 conn=wye Kv=0.208 kva=10.4 %R=0.91198 bus=bus_cs_158_968_public_publiclevel272ac XHL=3.39 
New Load.load_cs_158_968_public_publiclevel272ac conn=wye bus1=bus_cs_158_968_public_publiclevel272ac kV=0.208 Vminpu=0.8 Vmaxpu=1.2 model=1 kW=.001 kvar=0.0002 Phases=2 
New Line.line_bus_cs_210_968_public_publiclevel272ac Units=km Length=9.101104355672779e-08 bus1=p13ulv18850.1.2 bus2=bus_cs_210_968_public_publiclevel272ac.1.2 switch=n enabled=y Linecode=1P_OH_AL_2/0_Rucina_2
 
New Load.load_cs_210_968_public_publiclevel272ac conn=wye bus1=bus_cs_210_968_public_publiclevel272ac kV=0.208 Vminpu=0.8 Vmaxpu=1.2 model=1 kW=.001 kvar=0.0002 Phases=2 
New Line.line_bus_cs_211_968_public_publiclevel272ac Units=km Length=1.5874694478374603e-07 bus1=p13ulv18876.1.2 bus2=bus_cs_211_968_public_publiclevel272ac.1.2 switch=n enabled=y Linecode=1P_OH_AL_2/0_Rucina_2
 
New Load.load_cs_211_968_public_publiclevel272ac conn=wye bus1=bus_cs_211_968_public_publiclevel272ac kV=0.208 Vminpu=0.8 Vmaxpu=1.2 model=1 kW=.001 kvar=0.0002 Phases=2 
New Line.line_bus_cs_223_968_public_publiclevel272ac Units=km Length=2.9488542917961944e-08 bus1=p13udt8642.1.2 bus2=bus_cs_223_968_public_publiclevel272ac.1.2 switch=n enabled=y Linecode=elbswitch_3_1
 
New Load.load_cs_223_968_public_publiclevel272ac conn=wye bus1=bus_cs_223_968_public_publiclevel272ac kV=0.208 Vminpu=0.8 Vmaxpu=1.2 model=1 kW=.001 kvar=0.0002 Phases=2 
New Line.line_p13ulv18987_cs_1179 Units=km Length=2.2338019078947225e-07 bus1=p13ulv18987.1.2 bus2=p13ulv18987_cs_1179.1.2 switch=n enabled=y Linecode=3P_UG_AL_350kcmil_3_2
 
New Transformer.ts(r:p13ulv18987_cs_1179-bus_cs_242_968_public_publiclevel272ac) phases=3 windings=2 %loadloss=1.6 wdg=1 conn=wye Kv=12.47 kva=300.0 %R=0.91198 bus=p13ulv18987_cs_1179 wdg=2 conn=wye Kv=0.208 kva=10.4 %R=0.91198 bus=bus_cs_242_968_public_publiclevel272ac XHL=3.39 
New Load.load_cs_242_968_public_publiclevel272ac conn=wye bus1=bus_cs_242_968_public_publiclevel272ac kV=0.208 Vminpu=0.8 Vmaxpu=1.2 model=1 kW=.001 kvar=0.0002 Phases=2 
New Line.line_bus_cs_243_968_public_publiclevel272ac Units=km Length=1.4871050745035257e-07 bus1=p13ulv18889.1.2 bus2=bus_cs_243_968_public_publiclevel272ac.1.2 switch=n enabled=y Linecode=1P_OH_AL_2/0_Rucina_2
 
New Load.load_cs_243_968_public_publiclevel272ac conn=wye bus1=bus_cs_243_968_public_publiclevel272ac kV=0.208 Vminpu=0.8 Vmaxpu=1.2 model=1 kW=.001 kvar=0.0002 Phases=2 
New Line.line_p13ulv18883_cs_1182 Units=km Length=1.0794490746789257e-07 bus1=p13ulv18883.1.2 bus2=p13ulv18883_cs_1182.1.2 switch=n enabled=y Linecode=3P_UG_AL_350kcmil_3_2
 
New Transformer.ts(r:p13ulv18883_cs_1182-bus_cs_247_968_public_publiclevel272ac) phases=3 windings=2 %loadloss=1.6 wdg=1 conn=wye Kv=12.47 kva=300.0 %R=0.91198 bus=p13ulv18883_cs_1182 wdg=2 conn=wye Kv=0.208 kva=10.4 %R=0.91198 bus=bus_cs_247_968_public_publiclevel272ac XHL=3.39 
New Load.load_cs_247_968_public_publiclevel272ac conn=wye bus1=bus_cs_247_968_public_publiclevel272ac kV=0.208 Vminpu=0.8 Vmaxpu=1.2 model=1 kW=.001 kvar=0.0002 Phases=2 
New Line.line_p13ulv18883_cs_1184 Units=km Length=1.3848908429928427e-07 bus1=p13ulv18883.1.2 bus2=p13ulv18883_cs_1184.1.2 switch=n enabled=y Linecode=3P_UG_AL_350kcmil_3_2
 
New Transformer.ts(r:p13ulv18883_cs_1184-bus_cs_250_968_public_publiclevel272ac) phases=3 windings=2 %loadloss=1.6 wdg=1 conn=wye Kv=12.47 kva=300.0 %R=0.91198 bus=p13ulv18883_cs_1184 wdg=2 conn=wye Kv=0.208 kva=10.4 %R=0.91198 bus=bus_cs_250_968_public_publiclevel272ac XHL=3.39 
New Load.load_cs_250_968_public_publiclevel272ac conn=wye bus1=bus_cs_250_968_public_publiclevel272ac kV=0.208 Vminpu=0.8 Vmaxpu=1.2 model=1 kW=.001 kvar=0.0002 Phases=2 
New Line.line_bus_cs_275_968_workplace_worklevel272ac Units=km Length=5.967580110350032e-08 bus1=p13ulv18869.1.2 bus2=bus_cs_275_968_workplace_worklevel272ac.1.2 switch=n enabled=y Linecode=1P_OH_AL_2/0_Rucina_2
 
New Load.load_cs_275_968_workplace_worklevel272ac conn=wye bus1=bus_cs_275_968_workplace_worklevel272ac kV=0.208 Vminpu=0.8 Vmaxpu=1.2 model=1 kW=.001 kvar=0.0002 Phases=2 
New Line.line_bus_cs_276_968_workplace_worklevel272ac Units=km Length=1.55754369437158e-07 bus1=p13ulv18977.1.2 bus2=bus_cs_276_968_workplace_worklevel272ac.1.2 switch=n enabled=y Linecode=1P_OH_AL_2/0_Rucina_2
 
New Load.load_cs_276_968_workplace_worklevel272ac conn=wye bus1=bus_cs_276_968_workplace_worklevel272ac kV=0.208 Vminpu=0.8 Vmaxpu=1.2 model=1 kW=.001 kvar=0.0002 Phases=2 
New Line.line_bus_cs_283_968_workplace_worklevel272ac Units=km Length=1.1029417082745851e-07 bus1=p13ulv18870.1.2 bus2=bus_cs_283_968_workplace_worklevel272ac.1.2 switch=n enabled=y Linecode=1P_OH_AL_2/0_Rucina_2
 
New Load.load_cs_283_968_workplace_worklevel272ac conn=wye bus1=bus_cs_283_968_workplace_worklevel272ac kV=0.208 Vminpu=0.8 Vmaxpu=1.2 model=1 kW=.001 kvar=0.0002 Phases=2 
New Line.line_p13ulv18888_cs_1224 Units=km Length=2.3770737237955006e-07 bus1=p13ulv18888.1.2 bus2=p13ulv18888_cs_1224.1.2 switch=n enabled=y Linecode=3P_UG_AL_350kcmil_3_2
 
New Transformer.ts(r:p13ulv18888_cs_1224-bus_cs_354_968_workplace_worklevel272ac) phases=3 windings=2 %loadloss=1.6 wdg=1 conn=wye Kv=12.47 kva=300.0 %R=0.91198 bus=p13ulv18888_cs_1224 wdg=2 conn=wye Kv=0.208 kva=10.4 %R=0.91198 bus=bus_cs_354_968_workplace_worklevel272ac XHL=3.39 
New Load.load_cs_354_968_workplace_worklevel272ac conn=wye bus1=bus_cs_354_968_workplace_worklevel272ac kV=0.208 Vminpu=0.8 Vmaxpu=1.2 model=1 kW=.001 kvar=0.0002 Phases=2 
New Line.line_bus_cs_389_968_workplace_worklevel272ac Units=km Length=2.2791599548222512e-07 bus1=p13ulv18863.1.2 bus2=bus_cs_389_968_workplace_worklevel272ac.1.2 switch=n enabled=y Linecode=1P_OH_AL_2/0_Rucina_2
 
New Load.load_cs_389_968_workplace_worklevel272ac conn=wye bus1=bus_cs_389_968_workplace_worklevel272ac kV=0.208 Vminpu=0.8 Vmaxpu=1.2 model=1 kW=.001 kvar=0.0002 Phases=2 
New Line.line_bus_cs_473_968_workplace_worklevel272ac Units=km Length=1.5064052358711683e-07 bus1=p13udt8642lv.1.2 bus2=bus_cs_473_968_workplace_worklevel272ac.1.2 switch=n enabled=y Linecode=1P_OH_AL_4/0_Zuzara_2
 
New Load.load_cs_473_968_workplace_worklevel272ac conn=wye bus1=bus_cs_473_968_workplace_worklevel272ac kV=0.208 Vminpu=0.8 Vmaxpu=1.2 model=1 kW=.001 kvar=0.0002 Phases=2 
New Line.line_bus_cs_482_968_workplace_worklevel272ac Units=km Length=5.5842691503624294e-08 bus1=p13ulv85136.1.2 bus2=bus_cs_482_968_workplace_worklevel272ac.1.2 switch=n enabled=y Linecode=1P_OH_AL_4_Periwinkle_2
 
New Load.load_cs_482_968_workplace_worklevel272ac conn=wye bus1=bus_cs_482_968_workplace_worklevel272ac kV=0.208 Vminpu=0.8 Vmaxpu=1.2 model=1 kW=.001 kvar=0.0002 Phases=2 
New Line.line_p13ulv18820_cs_4378 Units=km Length=1.2544119861021968e-07 bus1=p13ulv18820.1 bus2=p13ulv18820_cs_4378.1 switch=n enabled=y Linecode=3P_UG_AL_350kcmil_3_2
 
New Transformer.ts(r:p13ulv18820_cs_4378-bus_cs_5258_946_residential_homelevel118ac) phases=3 windings=2 %loadloss=1.6 wdg=1 conn=wye Kv=12.47 kva=300.0 %R=0.91198 bus=p13ulv18820_cs_4378 wdg=2 conn=wye Kv=0.120 kva=6.0 %R=0.91198 bus=bus_cs_5258_946_residential_homelevel118ac XHL=3.39 
New Load.load_cs_5258_946_residential_homelevel118ac conn=wye bus1=bus_cs_5258_946_residential_homelevel118ac kV=0.120 Vminpu=0.8 Vmaxpu=1.2 model=1 kW=.001 kvar=0.0002 Phases=1 
New Line.line_p13ulv98049_cs_4379 Units=km Length=2.47886463625444e-07 bus1=p13ulv98049.1 bus2=p13ulv98049_cs_4379.1 switch=n enabled=y Linecode=3P_UG_AL_350kcmil_3_2
 
New Transformer.ts(r:p13ulv98049_cs_4379-bus_cs_5267_946_residential_homelevel118ac) phases=3 windings=2 %loadloss=1.6 wdg=1 conn=wye Kv=12.47 kva=300.0 %R=0.91198 bus=p13ulv98049_cs_4379 wdg=2 conn=wye Kv=0.120 kva=6.0 %R=0.91198 bus=bus_cs_5267_946_residential_homelevel118ac XHL=3.39 
New Load.load_cs_5267_946_residential_homelevel118ac conn=wye bus1=bus_cs_5267_946_residential_homelevel118ac kV=0.120 Vminpu=0.8 Vmaxpu=1.2 model=1 kW=.001 kvar=0.0002 Phases=1 
New Line.line_p13ulv99910_cs_4381 Units=km Length=1.1761722912696722e-07 bus1=p13ulv99910.1 bus2=p13ulv99910_cs_4381.1 switch=n enabled=y Linecode=3P_UG_AL_350kcmil_3_2
 
New Transformer.ts(r:p13ulv99910_cs_4381-bus_cs_5281_946_residential_homelevel118ac) phases=3 windings=2 %loadloss=1.6 wdg=1 conn=wye Kv=12.47 kva=300.0 %R=0.91198 bus=p13ulv99910_cs_4381 wdg=2 conn=wye Kv=0.120 kva=6.0 %R=0.91198 bus=bus_cs_5281_946_residential_homelevel118ac XHL=3.39 
New Load.load_cs_5281_946_residential_homelevel118ac conn=wye bus1=bus_cs_5281_946_residential_homelevel118ac kV=0.120 Vminpu=0.8 Vmaxpu=1.2 model=1 kW=.001 kvar=0.0002 Phases=1 
New Line.line_bus_cs_5321_946_residential_homelevel118ac Units=km Length=1.0551817520840189e-07 bus1=p13ulv32429.1 bus2=bus_cs_5321_946_residential_homelevel118ac.1 switch=n enabled=y Linecode=1P_OH_AL_2/0_Rucina_2
 
New Load.load_cs_5321_946_residential_homelevel118ac conn=wye bus1=bus_cs_5321_946_residential_homelevel118ac kV=0.120 Vminpu=0.8 Vmaxpu=1.2 model=1 kW=.001 kvar=0.0002 Phases=1 
New Line.line_bus_cs_5323_946_residential_homelevel118ac Units=km Length=9.673216672291433e-08 bus1=p13ulv32438.1 bus2=bus_cs_5323_946_residential_homelevel118ac.1 switch=n enabled=y Linecode=1P_OH_AL_2/0_Rucina_2
 
New Load.load_cs_5323_946_residential_homelevel118ac conn=wye bus1=bus_cs_5323_946_residential_homelevel118ac kV=0.120 Vminpu=0.8 Vmaxpu=1.2 model=1 kW=.001 kvar=0.0002 Phases=1 
New Line.line_bus_cs_5326_946_residential_homelevel118ac Units=km Length=1.0296678737850124e-07 bus1=p13ulv19416.1 bus2=bus_cs_5326_946_residential_homelevel118ac.1 switch=n enabled=y Linecode=1P_OH_AL_2/0_Rucina_2
 
New Load.load_cs_5326_946_residential_homelevel118ac conn=wye bus1=bus_cs_5326_946_residential_homelevel118ac kV=0.120 Vminpu=0.8 Vmaxpu=1.2 model=1 kW=.001 kvar=0.0002 Phases=1 
New Line.line_bus_cs_5330_946_residential_homelevel118ac Units=km Length=1.3543680047230206e-07 bus1=p13ulv32391.1 bus2=bus_cs_5330_946_residential_homelevel118ac.1 switch=n enabled=y Linecode=1P_UG_AL_1/0_Brenau_2
 
New Load.load_cs_5330_946_residential_homelevel118ac conn=wye bus1=bus_cs_5330_946_residential_homelevel118ac kV=0.120 Vminpu=0.8 Vmaxpu=1.2 model=1 kW=.001 kvar=0.0002 Phases=1 
New Line.line_bus_cs_5334_946_residential_homelevel118ac Units=km Length=1.362072356385868e-07 bus1=p13ulv32381.1 bus2=bus_cs_5334_946_residential_homelevel118ac.1 switch=n enabled=y Linecode=1P_OH_AL_2/0_Rucina_2
 
New Load.load_cs_5334_946_residential_homelevel118ac conn=wye bus1=bus_cs_5334_946_residential_homelevel118ac kV=0.120 Vminpu=0.8 Vmaxpu=1.2 model=1 kW=.001 kvar=0.0002 Phases=1 
New Line.line_bus_cs_5342_946_residential_homelevel118ac Units=km Length=1.7829197623932226e-07 bus1=p13ulv19422.1 bus2=bus_cs_5342_946_residential_homelevel118ac.1 switch=n enabled=y Linecode=1P_OH_AL_2/0_Rucina_2
 
New Load.load_cs_5342_946_residential_homelevel118ac conn=wye bus1=bus_cs_5342_946_residential_homelevel118ac kV=0.120 Vminpu=0.8 Vmaxpu=1.2 model=1 kW=.001 kvar=0.0002 Phases=1 
New Line.line_bus_cs_5346_946_residential_homelevel118ac Units=km Length=1.0920063992727443e-07 bus1=p13ulv18808.1 bus2=bus_cs_5346_946_residential_homelevel118ac.1 switch=n enabled=y Linecode=1P_UG_AL_1/0_Brenau_2
 
New Load.load_cs_5346_946_residential_homelevel118ac conn=wye bus1=bus_cs_5346_946_residential_homelevel118ac kV=0.120 Vminpu=0.8 Vmaxpu=1.2 model=1 kW=.001 kvar=0.0002 Phases=1 
New Line.line_bus_cs_5350_946_residential_homelevel118ac Units=km Length=1.1882948966695405e-07 bus1=p13ulv18806.1 bus2=bus_cs_5350_946_residential_homelevel118ac.1 switch=n enabled=y Linecode=1P_UG_AL_1/0_Brenau_2
 
New Load.load_cs_5350_946_residential_homelevel118ac conn=wye bus1=bus_cs_5350_946_residential_homelevel118ac kV=0.120 Vminpu=0.8 Vmaxpu=1.2 model=1 kW=.001 kvar=0.0002 Phases=1 
New Line.line_bus_cs_5354_946_residential_homelevel118ac Units=km Length=1.0796817828544064e-07 bus1=p13ulv18808.1 bus2=bus_cs_5354_946_residential_homelevel118ac.1 switch=n enabled=y Linecode=1P_UG_AL_1/0_Brenau_2
 
New Load.load_cs_5354_946_residential_homelevel118ac conn=wye bus1=bus_cs_5354_946_residential_homelevel118ac kV=0.120 Vminpu=0.8 Vmaxpu=1.2 model=1 kW=.001 kvar=0.0002 Phases=1 
New Line.line_bus_cs_5357_946_residential_homelevel118ac Units=km Length=1.2177247282472232e-07 bus1=p13ulv19426.1 bus2=bus_cs_5357_946_residential_homelevel118ac.1 switch=n enabled=y Linecode=1P_OH_AL_2/0_Rucina_2
 
New Load.load_cs_5357_946_residential_homelevel118ac conn=wye bus1=bus_cs_5357_946_residential_homelevel118ac kV=0.120 Vminpu=0.8 Vmaxpu=1.2 model=1 kW=.001 kvar=0.0002 Phases=1 
New Line.line_bus_cs_5361_946_residential_homelevel118ac Units=km Length=1.3041989860752464e-07 bus1=p13ulv19432.1 bus2=bus_cs_5361_946_residential_homelevel118ac.1 switch=n enabled=y Linecode=1P_OH_AL_2/0_Rucina_2
 
New Load.load_cs_5361_946_residential_homelevel118ac conn=wye bus1=bus_cs_5361_946_residential_homelevel118ac kV=0.120 Vminpu=0.8 Vmaxpu=1.2 model=1 kW=.001 kvar=0.0002 Phases=1 
New Line.line_bus_cs_5365_946_residential_homelevel118ac Units=km Length=1.0127046519285073e-07 bus1=p13ulv85143.1 bus2=bus_cs_5365_946_residential_homelevel118ac.1 switch=n enabled=y Linecode=1P_UG_AL_1/0_Brenau_2
 
New Load.load_cs_5365_946_residential_homelevel118ac conn=wye bus1=bus_cs_5365_946_residential_homelevel118ac kV=0.120 Vminpu=0.8 Vmaxpu=1.2 model=1 kW=.001 kvar=0.0002 Phases=1 
New Line.line_bus_cs_5368_946_residential_homelevel118ac Units=km Length=1.1177174354090552e-07 bus1=p13ulv32464.1 bus2=bus_cs_5368_946_residential_homelevel118ac.1 switch=n enabled=y Linecode=1P_OH_AL_2/0_Rucina_2
 
New Load.load_cs_5368_946_residential_homelevel118ac conn=wye bus1=bus_cs_5368_946_residential_homelevel118ac kV=0.120 Vminpu=0.8 Vmaxpu=1.2 model=1 kW=.001 kvar=0.0002 Phases=1 
New Line.line_bus_cs_5372_946_residential_homelevel118ac Units=km Length=1.0944454341864678e-07 bus1=p13ulv32462.1 bus2=bus_cs_5372_946_residential_homelevel118ac.1 switch=n enabled=y Linecode=1P_OH_AL_2/0_Rucina_2
 
New Load.load_cs_5372_946_residential_homelevel118ac conn=wye bus1=bus_cs_5372_946_residential_homelevel118ac kV=0.120 Vminpu=0.8 Vmaxpu=1.2 model=1 kW=.001 kvar=0.0002 Phases=1 
New Line.line_bus_cs_5375_946_residential_homelevel118ac Units=km Length=1.4076480552977349e-07 bus1=p13ulv19419.1 bus2=bus_cs_5375_946_residential_homelevel118ac.1 switch=n enabled=y Linecode=1P_OH_AL_2/0_Rucina_2
 
New Load.load_cs_5375_946_residential_homelevel118ac conn=wye bus1=bus_cs_5375_946_residential_homelevel118ac kV=0.120 Vminpu=0.8 Vmaxpu=1.2 model=1 kW=.001 kvar=0.0002 Phases=1 
New Line.line_bus_cs_5379_946_residential_homelevel118ac Units=km Length=1.421201661576988e-07 bus1=p13ulv19426.1 bus2=bus_cs_5379_946_residential_homelevel118ac.1 switch=n enabled=y Linecode=1P_OH_AL_2/0_Rucina_2
 
New Load.load_cs_5379_946_residential_homelevel118ac conn=wye bus1=bus_cs_5379_946_residential_homelevel118ac kV=0.120 Vminpu=0.8 Vmaxpu=1.2 model=1 kW=.001 kvar=0.0002 Phases=1 
New Line.line_bus_cs_5383_946_residential_homelevel118ac Units=km Length=1.2622864898752112e-07 bus1=p13ulv19417.1 bus2=bus_cs_5383_946_residential_homelevel118ac.1 switch=n enabled=y Linecode=1P_OH_AL_2/0_Rucina_2
 
New Load.load_cs_5383_946_residential_homelevel118ac conn=wye bus1=bus_cs_5383_946_residential_homelevel118ac kV=0.120 Vminpu=0.8 Vmaxpu=1.2 model=1 kW=.001 kvar=0.0002 Phases=1 
New Line.line_bus_cs_5391_946_residential_homelevel118ac Units=km Length=1.1764278134700905e-07 bus1=p13ulv32378.1 bus2=bus_cs_5391_946_residential_homelevel118ac.1 switch=n enabled=y Linecode=1P_OH_AL_2/0_Rucina_2
 
New Load.load_cs_5391_946_residential_homelevel118ac conn=wye bus1=bus_cs_5391_946_residential_homelevel118ac kV=0.120 Vminpu=0.8 Vmaxpu=1.2 model=1 kW=.001 kvar=0.0002 Phases=1 
New Line.line_bus_cs_5399_946_residential_homelevel118ac Units=km Length=1.1480015581632668e-07 bus1=p13ulv32385.1 bus2=bus_cs_5399_946_residential_homelevel118ac.1 switch=n enabled=y Linecode=1P_OH_AL_2/0_Rucina_2
 
New Load.load_cs_5399_946_residential_homelevel118ac conn=wye bus1=bus_cs_5399_946_residential_homelevel118ac kV=0.120 Vminpu=0.8 Vmaxpu=1.2 model=1 kW=.001 kvar=0.0002 Phases=1 
New Line.line_bus_cs_5403_946_residential_homelevel118ac Units=km Length=1.501426489198552e-07 bus1=p13ulv19422.1 bus2=bus_cs_5403_946_residential_homelevel118ac.1 switch=n enabled=y Linecode=1P_OH_AL_2/0_Rucina_2
 
New Load.load_cs_5403_946_residential_homelevel118ac conn=wye bus1=bus_cs_5403_946_residential_homelevel118ac kV=0.120 Vminpu=0.8 Vmaxpu=1.2 model=1 kW=.001 kvar=0.0002 Phases=1 
New Line.line_bus_cs_5411_946_residential_homelevel118ac Units=km Length=1.207238389220512e-07 bus1=p13ulv32438.1 bus2=bus_cs_5411_946_residential_homelevel118ac.1 switch=n enabled=y Linecode=1P_OH_AL_2/0_Rucina_2
 
New Load.load_cs_5411_946_residential_homelevel118ac conn=wye bus1=bus_cs_5411_946_residential_homelevel118ac kV=0.120 Vminpu=0.8 Vmaxpu=1.2 model=1 kW=.001 kvar=0.0002 Phases=1 
New Line.line_bus_cs_5415_946_residential_homelevel118ac Units=km Length=1.410043254942713e-07 bus1=p13ulv32452.1 bus2=bus_cs_5415_946_residential_homelevel118ac.1 switch=n enabled=y Linecode=1P_UG_AL_1/0_Brenau_2
 
New Load.load_cs_5415_946_residential_homelevel118ac conn=wye bus1=bus_cs_5415_946_residential_homelevel118ac kV=0.120 Vminpu=0.8 Vmaxpu=1.2 model=1 kW=.001 kvar=0.0002 Phases=1 
New Line.line_bus_cs_5422_946_residential_homelevel118ac Units=km Length=1.0943941818357443e-07 bus1=p13ulv32437.1 bus2=bus_cs_5422_946_residential_homelevel118ac.1 switch=n enabled=y Linecode=1P_OH_AL_2/0_Rucina_2
 
New Load.load_cs_5422_946_residential_homelevel118ac conn=wye bus1=bus_cs_5422_946_residential_homelevel118ac kV=0.120 Vminpu=0.8 Vmaxpu=1.2 model=1 kW=.001 kvar=0.0002 Phases=1 