New Line.l(r:p13udt8608lv-p13ulv18791) Units=km Length=0.012552500000000001 bus1=p13udt8608lv.1.2 bus2=p13ulv18791.1.2 switch=n enabled=y phases=2 Linecode=1P_UG_AL_2/0_Converse_2

New Line.l(r:p13udm36769-p13ulv18790) Units=km Length=0.0125481 bus1=p13udm36769.1.2 bus2=p13ulv18790.1.2 switch=n enabled=y phases=2 Linecode=1P_UG_AL_1/0_Brenau_2

New Line.l(r:p13udm36768-p13ulv18789) Units=km Length=0.0124638 bus1=p13udm36768.1.2 bus2=p13ulv18789.1.2 switch=n enabled=y phases=2 Linecode=1P_UG_AL_1/0_Brenau_2

New Line.l(r:p13udm36768-p13udm36769) Units=km Length=0.00791182 bus1=p13udm36769.1.2 bus2=p13udm36768.1.2 switch=n enabled=y phases=2 Linecode=1P_UG_AL_1/0_Brenau_2

New Line.l(r:p13udm36769-p13udt8608lv) Units=km Length=0.00846242 bus1=p13udt8608lv.1.2 bus2=p13udm36769.1.2 switch=n enabled=y phases=2 Linecode=1P_UG_AL_4/0_Sweetbriar_2

New Line.l(r:p13udm36771-p13ulv18792) Units=km Length=0.011894200000000002 bus1=p13udm36771.1.2 bus2=p13ulv18792.1.2 switch=n enabled=y phases=2 Linecode=1P_UG_AL_1/0_Brenau_2

New Line.l(r:p13udm36767-p13ulv18786) Units=km Length=0.0116951 bus1=p13udm36767.1.2 bus2=p13ulv18786.1.2 switch=n enabled=y phases=2 Linecode=1P_UG_AL_2/0_Converse_2

New Line.l(r:p13udm36767-p13udm36771) Units=km Length=0.008283560000000002 bus1=p13udm36771.1.2 bus2=p13udm36767.1.2 switch=n enabled=y phases=2 Linecode=1P_UG_AL_2/0_Converse_2

New Line.l(r:p13udm36771-p13udt8608lv) Units=km Length=0.00828788 bus1=p13udt8608lv.1.2 bus2=p13udm36771.1.2 switch=n enabled=y phases=2 Linecode=1P_UG_AL_4/0_Sweetbriar_2

New Line.l(r:p13udt8609lv-p13ulv18793) Units=km Length=0.0100402 bus1=p13udt8609lv.1.2 bus2=p13ulv18793.1.2 switch=n enabled=y phases=2 Linecode=1P_UG_AL_4/0_Sweetbriar_2

New Line.l(r:p13udm36772-p13ulv18787) Units=km Length=0.00655867 bus1=p13udm36772.1.2 bus2=p13ulv18787.1.2 switch=n enabled=y phases=2 Linecode=1P_UG_AL_4/0_Sweetbriar_2

New Line.l(r:p13udm36772-p13udt8609lv) Units=km Length=0.020979000000000005 bus1=p13udt8609lv.1.2 bus2=p13udm36772.1.2 switch=n enabled=y phases=2 Linecode=1P_UG_AL_4/0_Sweetbriar_2

New Line.l(r:p13udm36774-p13ulv18795) Units=km Length=0.007331340000000001 bus1=p13udm36774.1.2 bus2=p13ulv18795.1.2 switch=n enabled=y phases=2 Linecode=1P_UG_AL_1/0_Brenau_2

New Line.l(r:p13udm36775-p13ulv18796) Units=km Length=0.00716874 bus1=p13udm36775.1.2 bus2=p13ulv18796.1.2 switch=n enabled=y phases=2 Linecode=1P_UG_AL_1/0_Brenau_2

New Line.l(r:p13udm36774-p13udm36775) Units=km Length=0.00987132 bus1=p13udm36774.1.2 bus2=p13udm36775.1.2 switch=n enabled=y phases=2 Linecode=1P_UG_AL_1/0_Brenau_2

New Line.l(r:p13udm36774-p13udt8609lv) Units=km Length=0.00987565 bus1=p13udt8609lv.1.2 bus2=p13udm36774.1.2 switch=n enabled=y phases=2 Linecode=1P_UG_AL_4/0_Sweetbriar_2

New Line.l(r:p13udt8610lv-p13ulv18804) Units=km Length=0.0137372 bus1=p13udt8610lv.1.2 bus2=p13ulv18804.1.2 switch=n enabled=y phases=2 Linecode=1P_OH_AL_2/0_Rucina_2

New Line.l(r:p13udt8610lv-p13ulv18812) Units=km Length=0.015527600000000003 bus1=p13udt8610lv.1.2 bus2=p13ulv18812.1.2 switch=n enabled=y phases=2 Linecode=1P_OH_AL_2/0_Rucina_2

New Line.l(r:p13udm36776-p13ulv18788) Units=km Length=0.0115561 bus1=p13udm36776.1.2 bus2=p13ulv18788.1.2 switch=n enabled=y phases=2 Linecode=1P_OH_AL_2/0_Rucina_2

New Line.l(r:p13udm36776-p13ulv18805) Units=km Length=0.013540900000000002 bus1=p13udm36776.1.2 bus2=p13ulv18805.1.2 switch=n enabled=y phases=2 Linecode=1P_OH_AL_2/0_Rucina_2

New Line.l(r:p13udm36776-p13udt8610lv) Units=km Length=0.0108216 bus1=p13udt8610lv.1.2 bus2=p13udm36776.1.2 switch=n enabled=y phases=2 Linecode=1P_OH_AL_2/0_Rucina_2

New Line.l(r:p13udm36780-p13ulv18814) Units=km Length=0.015353800000000003 bus1=p13udm36780.1.2 bus2=p13ulv18814.1.2 switch=n enabled=y phases=2 Linecode=1P_OH_AL_2/0_Rucina_2

New Line.l(r:p13udm36780-p13ulv18815) Units=km Length=0.0124706 bus1=p13udm36780.1.2 bus2=p13ulv18815.1.2 switch=n enabled=y phases=2 Linecode=1P_OH_AL_2/0_Rucina_2

New Line.l(r:p13udm36780-p13udt8610lv) Units=km Length=0.0108084 bus1=p13udt8610lv.1.2 bus2=p13udm36780.1.2 switch=n enabled=y phases=2 Linecode=1P_OH_AL_2/0_Rucina_2

New Line.l(r:p13udt8612lv-p13ulv18801) Units=km Length=0.00705535 bus1=p13udt8612lv.1.2 bus2=p13ulv18801.1.2 switch=n enabled=y phases=2 Linecode=1P_OH_AL_2/0_Rucina_2

New Line.l(r:p13udm36786-p13ulv18802) Units=km Length=0.00724812 bus1=p13udm36786.1.2 bus2=p13ulv18802.1.2 switch=n enabled=y phases=2 Linecode=1P_OH_AL_2/0_Rucina_2

New Line.l(r:p13udm36784-p13ulv18800) Units=km Length=0.00778039 bus1=p13udm36784.1.2 bus2=p13ulv18800.1.2 switch=n enabled=y phases=2 Linecode=1P_OH_AL_2/0_Rucina_2

New Line.l(r:p13udm36784-p13udm36786) Units=km Length=0.0100422 bus1=p13udm36786.1.2 bus2=p13udm36784.1.2 switch=n enabled=y phases=2 Linecode=1P_OH_AL_2/0_Rucina_2

New Line.l(r:p13udm36786-p13udt8612lv) Units=km Length=0.0149581 bus1=p13udt8612lv.1.2 bus2=p13udm36786.1.2 switch=n enabled=y phases=2 Linecode=1P_OH_AL_2/0_Rucina_2

New Line.l(r:p13udm36787-p13ulv85143) Units=km Length=0.0143927 bus1=p13udm36787.1.2 bus2=p13ulv85143.1.2 switch=n enabled=y phases=2 Linecode=1P_UG_AL_1/0_Brenau_2

New Line.l(r:p13udm36783-p13ulv18798) Units=km Length=0.0100928 bus1=p13udm36783.1.2 bus2=p13ulv18798.1.2 switch=n enabled=y phases=2 Linecode=1P_OH_AL_2/0_Rucina_2

New Line.l(r:p13udm36783-p13udm36787) Units=km Length=0.0167849 bus1=p13udm36787.1.2 bus2=p13udm36783.1.2 switch=n enabled=y phases=2 Linecode=1P_OH_AL_2/0_Rucina_2

New Line.l(r:p13udm36787-p13udt8612lv) Units=km Length=0.0161999 bus1=p13udt8612lv.1.2 bus2=p13udm36787.1.2 switch=n enabled=y phases=2 Linecode=1P_OH_AL_2/0_Rucina_2

New Line.l(r:p13udt8613lv-p13ulv18799) Units=km Length=0.00798817 bus1=p13udt8613lv.1.2 bus2=p13ulv18799.1.2 switch=n enabled=y phases=2 Linecode=1P_OH_AL_2/0_Rucina_2

New Line.l(r:p13udm36789-p13ulv18803) Units=km Length=0.016628500000000004 bus1=p13udm36789.1.2 bus2=p13ulv18803.1.2 switch=n enabled=y phases=2 Linecode=1P_OH_AL_2/0_Rucina_2

New Line.l(r:p13udm36789-p13udt8613lv) Units=km Length=0.015027000000000002 bus1=p13udt8613lv.1.2 bus2=p13udm36789.1.2 switch=n enabled=y phases=2 Linecode=1P_OH_AL_2/0_Rucina_2

New Line.l(r:p13udt8614lv-p13ulv18806) Units=km Length=0.011431500000000002 bus1=p13udt8614lv.1.2 bus2=p13ulv18806.1.2 switch=n enabled=y phases=2 Linecode=1P_UG_AL_1/0_Brenau_2

New Line.l(r:p13udm36791-p13ulv18807) Units=km Length=0.0135268 bus1=p13udm36791.1.2 bus2=p13ulv18807.1.2 switch=n enabled=y phases=2 Linecode=1P_UG_AL_1/0_Brenau_2

New Line.l(r:p13udm36791-p13udt8614lv) Units=km Length=0.009369790000000001 bus1=p13udt8614lv.1.2 bus2=p13udm36791.1.2 switch=n enabled=y phases=2 Linecode=1P_UG_AL_1/0_Brenau_2

New Line.l(r:p13udm36792-p13ulv18857) Units=km Length=0.0124702 bus1=p13udm36792.1.2 bus2=p13ulv18857.1.2 switch=n enabled=y phases=2 Linecode=1P_UG_AL_4/0_Sweetbriar_2

New Line.l(r:p13udm36792-p13udt8614lv) Units=km Length=0.00402081 bus1=p13udt8614lv.1.2 bus2=p13udm36792.1.2 switch=n enabled=y phases=2 Linecode=1P_UG_AL_4/0_Sweetbriar_2

New Line.l(r:p13udt8615lv-p13ulv18808) Units=km Length=0.0134682 bus1=p13udt8615lv.1.2 bus2=p13ulv18808.1.2 switch=n enabled=y phases=2 Linecode=1P_UG_AL_1/0_Brenau_2

New Line.l(r:p13udt8615lv-p13ulv18856) Units=km Length=0.0124982 bus1=p13udt8615lv.1.2 bus2=p13ulv18856.1.2 switch=n enabled=y phases=2 Linecode=1P_UG_AL_4/0_Sweetbriar_2

New Line.l(r:p13udt8616lv-p13ulv18809) Units=km Length=0.012694600000000002 bus1=p13udt8616lv.1.2 bus2=p13ulv18809.1.2 switch=n enabled=y phases=2 Linecode=1P_OH_AL_2/0_Rucina_2

New Line.l(r:p13udt8616lv-p13ulv18810) Units=km Length=0.00636133 bus1=p13udt8616lv.1.2 bus2=p13ulv18810.1.2 switch=n enabled=y phases=2 Linecode=1P_OH_AL_2/0_Rucina_2

New Line.l(r:p13udt8616lv-p13ulv18811) Units=km Length=0.004013680000000001 bus1=p13udt8616lv.1.2 bus2=p13ulv18811.1.2 switch=n enabled=y phases=2 Linecode=1P_OH_AL_2/0_Rucina_2

New Line.l(r:p13udm36798-p13ulv18817) Units=km Length=0.0076622800000000005 bus1=p13udm36798.1.2 bus2=p13ulv18817.1.2 switch=n enabled=y phases=2 Linecode=1P_OH_AL_2/0_Rucina_2

New Line.l(r:p13udm36799-p13ulv18818) Units=km Length=0.00848416 bus1=p13udm36799.1.2 bus2=p13ulv18818.1.2 switch=n enabled=y phases=2 Linecode=1P_OH_AL_2/0_Rucina_2

New Line.l(r:p13udm36798-p13udm36799) Units=km Length=0.0105948 bus1=p13udm36798.1.2 bus2=p13udm36799.1.2 switch=n enabled=y phases=2 Linecode=1P_OH_AL_2/0_Rucina_2

New Line.l(r:p13udm36798-p13udt8616lv) Units=km Length=0.0302442 bus1=p13udt8616lv.1.2 bus2=p13udm36798.1.2 switch=n enabled=y phases=2 Linecode=1P_OH_AL_4/0_Zuzara_2

New Line.l(r:p13udm36800-p13ulv18819) Units=km Length=0.008390110000000001 bus1=p13udm36800.1.2 bus2=p13ulv18819.1.2 switch=n enabled=y phases=2 Linecode=1P_OH_AL_2/0_Rucina_2

New Line.l(r:p13udm36800-p13udt8616lv) Units=km Length=0.0157902 bus1=p13udt8616lv.1.2 bus2=p13udm36800.1.2 switch=n enabled=y phases=2 Linecode=1P_OH_AL_2/0_Rucina_2

New Line.l(r:p13udt8617lv-p13ulv18816) Units=km Length=0.0134718 bus1=p13udt8617lv.1.2 bus2=p13ulv18816.1.2 switch=n enabled=y phases=2 Linecode=1P_OH_AL_2/0_Rucina_2

New Line.l(r:p13udt8642lv-p13ulv18850) Units=km Length=0.00597655 bus1=p13udt8642lv.1.2 bus2=p13ulv18850.1.2 switch=n enabled=y phases=2 Linecode=1P_OH_AL_2/0_Rucina_2

New Line.l(r:p13udm36835-p13ulv18847) Units=km Length=0.0111221 bus1=p13udm36835.1.2 bus2=p13ulv18847.1.2 switch=n enabled=y phases=2 Linecode=1P_UG_AL_4/0_Sweetbriar_2

New Line.l(r:p13udm36835-p13udt8642lv) Units=km Length=0.0490614 bus1=p13udt8642lv.1.2 bus2=p13udm36835.1.2 switch=n enabled=y phases=2 Linecode=1P_OH_AL_4/0_Zuzara_2

New Line.l(r:p13udt8644lv-p13ulv85129) Units=km Length=0.00196469 bus1=p13udt8644lv.1.2 bus2=p13ulv85129.1.2 switch=n enabled=y phases=2 Linecode=1P_OH_AL_4_Periwinkle_2

New Line.l(r:p13udt8644lv-p13ulv85130) Units=km Length=0.0100218 bus1=p13udt8644lv.1.2 bus2=p13ulv85130.1.2 switch=n enabled=y phases=2 Linecode=1P_OH_AL_2/0_Rucina_2

New Line.l(r:p13udm36838-p13ulv18851) Units=km Length=0.00561912 bus1=p13udm36838.1.2 bus2=p13ulv18851.1.2 switch=n enabled=y phases=2 Linecode=1P_OH_AL_2/0_Rucina_2

New Line.l(r:p13udm36838-p13udt8644lv) Units=km Length=0.0270433 bus1=p13udt8644lv.1.2 bus2=p13udm36838.1.2 switch=n enabled=y phases=2 Linecode=1P_OH_AL_4/0_Zuzara_2

New Line.l(r:p13udt8645lv-p13ulv18853) Units=km Length=0.00421777 bus1=p13udt8645lv.1.2 bus2=p13ulv18853.1.2 switch=n enabled=y phases=2 Linecode=1P_OH_AL_2/0_Rucina_2

New Line.l(r:p13udm36841-p13ulv18852) Units=km Length=0.007372930000000001 bus1=p13udm36841.1.2 bus2=p13ulv18852.1.2 switch=n enabled=y phases=2 Linecode=1P_OH_AL_2/0_Rucina_2

New Line.l(r:p13udm36841-p13ulv18862) Units=km Length=0.00914919 bus1=p13udm36841.1.2 bus2=p13ulv18862.1.2 switch=n enabled=y phases=2 Linecode=1P_OH_AL_2/0_Rucina_2

New Line.l(r:p13udm36844-p13ulv18876) Units=km Length=0.0131087 bus1=p13udm36844.1.2 bus2=p13ulv18876.1.2 switch=n enabled=y phases=2 Linecode=1P_OH_AL_2/0_Rucina_2

New Line.l(r:p13udm36841-p13udm36844) Units=km Length=0.0465872 bus1=p13udm36841.1.2 bus2=p13udm36844.1.2 switch=n enabled=y phases=2 Linecode=1P_OH_AL_4/0_Zuzara_2

New Line.l(r:p13udm36841-p13udt8645lv) Units=km Length=0.0272802 bus1=p13udt8645lv.1.2 bus2=p13udm36841.1.2 switch=n enabled=y phases=2 Linecode=1P_OH_AL_4/0_Zuzara_2_2

New Line.l(r:p13udt8646lv-p13ulv18854) Units=km Length=0.0119915 bus1=p13udt8646lv.1.2 bus2=p13ulv18854.1.2 switch=n enabled=y phases=2 Linecode=1P_OH_AL_2/0_Rucina_2

New Line.l(r:p13udm36846-p13ulv18855) Units=km Length=0.013025100000000001 bus1=p13udm36846.1.2 bus2=p13ulv18855.1.2 switch=n enabled=y phases=2 Linecode=1P_OH_AL_2/0_Rucina_2

New Line.l(r:p13udm36846-p13udt8646lv) Units=km Length=0.0141781 bus1=p13udt8646lv.1.2 bus2=p13udm36846.1.2 switch=n enabled=y phases=2 Linecode=1P_OH_AL_2/0_Rucina_2

New Line.l(r:p13udt8647lv-p13ulv18858) Units=km Length=0.014 bus1=p13udt8647lv.1.2 bus2=p13ulv18858.1.2 switch=n enabled=y phases=2 Linecode=1P_OH_AL_2/0_Rucina_2

New Line.l(r:p13udt8648lv-p13ulv18859) Units=km Length=0.0162034 bus1=p13udt8648lv.1.2 bus2=p13ulv18859.1.2 switch=n enabled=y phases=2 Linecode=1P_OH_AL_2/0_Rucina_2

New Line.l(r:p13udt8650lv-p13ulv18863) Units=km Length=0.0182265 bus1=p13udt8650lv.1.2 bus2=p13ulv18863.1.2 switch=n enabled=y phases=2 Linecode=1P_OH_AL_2/0_Rucina_2

New Line.l(r:p13udt8650lv-p13ulv18864) Units=km Length=0.00803197 bus1=p13udt8650lv.1.2 bus2=p13ulv18864.1.2 switch=n enabled=y phases=2 Linecode=1P_OH_AL_2/0_Rucina_2

New Line.l(r:p13udt8650lv-p13ulv18869) Units=km Length=0.0141856 bus1=p13udt8650lv.1.2 bus2=p13ulv18869.1.2 switch=n enabled=y phases=2 Linecode=1P_OH_AL_2/0_Rucina_2

New Line.l(r:p13udm36853-p13ulv85136) Units=km Length=0.00343211 bus1=p13udm36853.1.2 bus2=p13ulv85136.1.2 switch=n enabled=y phases=2 Linecode=1P_OH_AL_4_Periwinkle_2

New Line.l(r:p13udm36853-p13udt8650lv) Units=km Length=0.0197215 bus1=p13udt8650lv.1.2 bus2=p13udm36853.1.2 switch=n enabled=y phases=2 Linecode=1P_OH_AL_2/0_Rucina_2

New Line.l(r:p13udt8651lv-p13ulv18866) Units=km Length=0.0149822 bus1=p13udt8651lv.1.2 bus2=p13ulv18866.1.2 switch=n enabled=y phases=2 Linecode=1P_UG_AL_1/0_Brenau_2

New Line.l(r:p13udm36854-p13ulv18865) Units=km Length=0.00938053 bus1=p13udm36854.1.2 bus2=p13ulv18865.1.2 switch=n enabled=y phases=2 Linecode=1P_UG_AL_1/0_Brenau_2

New Line.l(r:p13udm36854-p13udt8651lv) Units=km Length=0.010617 bus1=p13udt8651lv.1.2 bus2=p13udm36854.1.2 switch=n enabled=y phases=2 Linecode=1P_UG_AL_1/0_Brenau_2

New Line.l(r:p13udt8652lv-p13ulv18875) Units=km Length=0.00642393 bus1=p13udt8652lv.1.2 bus2=p13ulv18875.1.2 switch=n enabled=y phases=2 Linecode=1P_OH_AL_2/0_Rucina_2

New Line.l(r:p13udm36856-p13ulv18868) Units=km Length=0.0115472 bus1=p13udm36856.1.2 bus2=p13ulv18868.1.2 switch=n enabled=y phases=2 Linecode=1P_OH_AL_2/0_Rucina_2

New Line.l(r:p13udm36856-p13udt8652lv) Units=km Length=0.027261800000000003 bus1=p13udt8652lv.1.2 bus2=p13udm36856.1.2 switch=n enabled=y phases=2 Linecode=1P_OH_AL_4/0_Zuzara_2

New Line.l(r:p13udm36858-p13ulv18882) Units=km Length=0.00834128 bus1=p13udm36858.1.2 bus2=p13ulv18882.1.2 switch=n enabled=y phases=2 Linecode=1P_OH_AL_2/0_Rucina_2

New Line.l(r:p13udm36858-p13udt8652lv) Units=km Length=0.0139246 bus1=p13udt8652lv.1.2 bus2=p13udm36858.1.2 switch=n enabled=y phases=2 Linecode=1P_OH_AL_2/0_Rucina_2

New Line.l(r:p13udt8653lv-p13ulv18871) Units=km Length=0.00972101 bus1=p13udt8653lv.1.2 bus2=p13ulv18871.1.2 switch=n enabled=y phases=2 Linecode=1P_UG_AL_1/0_Brenau_2

New Line.l(r:p13udm36859-p13ulv18870) Units=km Length=0.013095200000000001 bus1=p13udm36859.1.2 bus2=p13ulv18870.1.2 switch=n enabled=y phases=2 Linecode=1P_OH_AL_2/0_Rucina_2

New Line.l(r:p13udm36859-p13udt8653lv) Units=km Length=0.00917523 bus1=p13udt8653lv.1.2 bus2=p13udm36859.1.2 switch=n enabled=y phases=2 Linecode=1P_OH_AL_2/0_Rucina_2

New Line.l(r:p13udm36861-p13ulv18872) Units=km Length=0.00776846 bus1=p13udm36861.1.2 bus2=p13ulv18872.1.2 switch=n enabled=y phases=2 Linecode=1P_UG_AL_1/0_Brenau_2

New Line.l(r:p13udm36861-p13udt8653lv) Units=km Length=0.00613874 bus1=p13udt8653lv.1.2 bus2=p13udm36861.1.2 switch=n enabled=y phases=2 Linecode=1P_UG_AL_1/0_Brenau_2

New Line.l(r:p13udt8655lv-p13ulv18874) Units=km Length=0.0104455 bus1=p13udt8655lv.1.2 bus2=p13ulv18874.1.2 switch=n enabled=y phases=2 Linecode=1P_OH_AL_2/0_Rucina_2

New Line.l(r:p13udm36864-p13ulv18877) Units=km Length=0.0119182 bus1=p13udm36864.1.2 bus2=p13ulv18877.1.2 switch=n enabled=y phases=2 Linecode=1P_OH_AL_2/0_Rucina_2

New Line.l(r:p13udm36864-p13udt8656lv) Units=km Length=0.015088100000000002 bus1=p13udt8656lv.1.2 bus2=p13udm36864.1.2 switch=n enabled=y phases=2 Linecode=1P_OH_AL_2/0_Rucina_2

New Line.l(r:p13udm36865-p13ulv85128) Units=km Length=0.0022305600000000004 bus1=p13udm36865.1.2 bus2=p13ulv85128.1.2 switch=n enabled=y phases=2 Linecode=1P_OH_AL_4_Periwinkle_2

New Line.l(r:p13udm36865-p13udt8656lv) Units=km Length=0.0446503 bus1=p13udt8656lv.1.2 bus2=p13udm36865.1.2 switch=n enabled=y phases=2 Linecode=1P_OH_AL_4/0_Zuzara_2

New Line.l(r:p13udt8659lv-p13ulv18880) Units=km Length=0.0028378200000000004 bus1=p13udt8659lv.1.2 bus2=p13ulv18880.1.2 switch=n enabled=y phases=2 Linecode=1P_OH_AL_4_Periwinkle_2

New Line.l(r:p13udt8664lv-p13ulv18889) Units=km Length=0.010220500000000002 bus1=p13udt8664lv.1.2 bus2=p13ulv18889.1.2 switch=n enabled=y phases=2 Linecode=1P_OH_AL_2/0_Rucina_2

New Line.l(r:p13udt8717lv-p13ulv18980) Units=km Length=0.0122507 bus1=p13udt8717lv.1.2 bus2=p13ulv18980.1.2 switch=n enabled=y phases=2 Linecode=1P_OH_AL_2/0_Rucina_2

New Line.l(r:p13udt8717lv-p13ulv18990) Units=km Length=0.0121342 bus1=p13udt8717lv.1.2 bus2=p13ulv18990.1.2 switch=n enabled=y phases=2 Linecode=1P_OH_AL_2/0_Rucina_2

New Line.l(r:p13udm36962-p13ulv18973) Units=km Length=0.0121815 bus1=p13udm36962.1.2 bus2=p13ulv18973.1.2 switch=n enabled=y phases=2 Linecode=1P_OH_AL_2/0_Rucina_2

New Line.l(r:p13udm36962-p13udt8717lv) Units=km Length=0.0153492 bus1=p13udt8717lv.1.2 bus2=p13udm36962.1.2 switch=n enabled=y phases=2 Linecode=1P_OH_AL_2/0_Rucina_2

New Line.l(r:p13udt8720lv-p13ulv18977) Units=km Length=0.0122695 bus1=p13udt8720lv.1.2 bus2=p13ulv18977.1.2 switch=n enabled=y phases=2 Linecode=1P_OH_AL_2/0_Rucina_2

New Line.l(r:p13udt8721lv-p13ulv18978) Units=km Length=0.0135069 bus1=p13udt8721lv.1.2 bus2=p13ulv18978.1.2 switch=n enabled=y phases=2 Linecode=1P_OH_AL_2/0_Rucina_2

New Line.l(r:p13udt8721lv-p13ulv18988) Units=km Length=0.0121064 bus1=p13udt8721lv.1.2 bus2=p13ulv18988.1.2 switch=n enabled=y phases=2 Linecode=1P_OH_AL_2/0_Rucina_2_7

New Line.l(r:p13udt8723lv-p13ulv18986) Units=km Length=0.0125707 bus1=p13udt8723lv.1.2 bus2=p13ulv18986.1.2 switch=n enabled=y phases=2 Linecode=1P_OH_AL_2/0_Rucina_2

New Line.l(r:p13udt8723lv-p13ulv18996) Units=km Length=0.0131504 bus1=p13udt8723lv.1.2 bus2=p13ulv18996.1.2 switch=n enabled=y phases=2 Linecode=1P_OH_AL_2/0_Rucina_2

New Line.l(r:p13udm36971-p13ulv18984) Units=km Length=0.0126414 bus1=p13udm36971.1.2 bus2=p13ulv18984.1.2 switch=n enabled=y phases=2 Linecode=1P_OH_AL_2/0_Rucina_2

New Line.l(r:p13udm36971-p13udt8723lv) Units=km Length=0.0160462 bus1=p13udt8723lv.1.2 bus2=p13udm36971.1.2 switch=n enabled=y phases=2 Linecode=1P_OH_AL_2/0_Rucina_2

New Line.l(r:p13udt8921lv-p13ulv19417) Units=km Length=0.0153222 bus1=p13udt8921lv.1.2 bus2=p13ulv19417.1.2 switch=n enabled=y phases=2 Linecode=1P_OH_AL_2/0_Rucina_2

New Line.l(r:p13udt8921lv-p13ulv32383) Units=km Length=0.0149168 bus1=p13udt8921lv.1.2 bus2=p13ulv32383.1.2 switch=n enabled=y phases=2 Linecode=1P_OH_AL_2/0_Rucina_2

New Line.l(r:p13udm37926-p13ulv19416) Units=km Length=0.018902 bus1=p13udm37926.1.2 bus2=p13ulv19416.1.2 switch=n enabled=y phases=2 Linecode=1P_OH_AL_2/0_Rucina_2

New Line.l(r:p13udm37926-p13ulv32385) Units=km Length=0.0108657 bus1=p13udm37926.1.2 bus2=p13ulv32385.1.2 switch=n enabled=y phases=2 Linecode=1P_OH_AL_2/0_Rucina_2

New Line.l(r:p13udm37926-p13udt8921lv) Units=km Length=0.0193926 bus1=p13udt8921lv.1.2 bus2=p13udm37926.1.2 switch=n enabled=y phases=2 Linecode=1P_OH_AL_2/0_Rucina_2

New Line.l(r:p13udm37928-p13ulv19419) Units=km Length=0.015289900000000002 bus1=p13udm37928.1.2 bus2=p13ulv19419.1.2 switch=n enabled=y phases=2 Linecode=1P_OH_AL_2/0_Rucina_2

New Line.l(r:p13udm37928-p13udt8921lv) Units=km Length=0.019406 bus1=p13udt8921lv.1.2 bus2=p13udm37928.1.2 switch=n enabled=y phases=2 Linecode=1P_OH_AL_2/0_Rucina_2

New Line.l(r:p13udt8922lv-p13ulv19421) Units=km Length=0.0144291 bus1=p13udt8922lv.1.2 bus2=p13ulv19421.1.2 switch=n enabled=y phases=2 Linecode=1P_OH_AL_2/0_Rucina_2

New Line.l(r:p13udm37932-p13ulv19424) Units=km Length=0.0116268 bus1=p13udm37932.1.2 bus2=p13ulv19424.1.2 switch=n enabled=y phases=2 Linecode=1P_OH_AL_2/0_Rucina_2

New Line.l(r:p13udm37932-p13udt8922lv) Units=km Length=0.0344204 bus1=p13udt8922lv.1.2 bus2=p13udm37932.1.2 switch=n enabled=y phases=2 Linecode=1P_OH_AL_4/0_Zuzara_2

New Line.l(r:p13udm37933-p13ulv19422) Units=km Length=0.0120251 bus1=p13udm37933.1.2 bus2=p13ulv19422.1.2 switch=n enabled=y phases=2 Linecode=1P_OH_AL_2/0_Rucina_2

New Line.l(r:p13udm37934-p13ulv19430) Units=km Length=0.0127398 bus1=p13udm37934.1.2 bus2=p13ulv19430.1.2 switch=n enabled=y phases=2 Linecode=1P_OH_AL_2/0_Rucina_2

New Line.l(r:p13udm37933-p13udm37934) Units=km Length=0.0159442 bus1=p13udm37933.1.2 bus2=p13udm37934.1.2 switch=n enabled=y phases=2 Linecode=1P_OH_AL_2/0_Rucina_2

New Line.l(r:p13udm37933-p13udt8923lv) Units=km Length=0.0159488 bus1=p13udt8923lv.1.2 bus2=p13udm37933.1.2 switch=n enabled=y phases=2 Linecode=1P_OH_AL_2/0_Rucina_2

New Line.l(r:p13udm37935-p13ulv32378) Units=km Length=0.012335 bus1=p13udm37935.1.2 bus2=p13ulv32378.1.2 switch=n enabled=y phases=2 Linecode=1P_OH_AL_2/0_Rucina_2

New Line.l(r:p13udm37935-p13udt8923lv) Units=km Length=0.0374748 bus1=p13udt8923lv.1.2 bus2=p13udm37935.1.2 switch=n enabled=y phases=2 Linecode=1P_OH_AL_4/0_Zuzara_2

New Line.l(r:p13udt8924lv-p13ulv19425) Units=km Length=0.0126063 bus1=p13udt8924lv.1.2 bus2=p13ulv19425.1.2 switch=n enabled=y phases=2 Linecode=1P_OH_AL_2/0_Rucina_2

New Line.l(r:p13udt8924lv-p13ulv19426) Units=km Length=0.0148443 bus1=p13udt8924lv.1.2 bus2=p13ulv19426.1.2 switch=n enabled=y phases=2 Linecode=1P_OH_AL_2/0_Rucina_2

New Line.l(r:p13udm37938-p13ulv19428) Units=km Length=0.0153868 bus1=p13udm37938.1.2 bus2=p13ulv19428.1.2 switch=n enabled=y phases=2 Linecode=1P_OH_AL_2/0_Rucina_2

New Line.l(r:p13udm37938-p13ulv19429) Units=km Length=0.0123495 bus1=p13udm37938.1.2 bus2=p13ulv19429.1.2 switch=n enabled=y phases=2 Linecode=1P_OH_AL_2/0_Rucina_2

New Line.l(r:p13udm37938-p13udt8924lv) Units=km Length=0.0167134 bus1=p13udt8924lv.1.2 bus2=p13udm37938.1.2 switch=n enabled=y phases=2 Linecode=1P_OH_AL_2/0_Rucina_2_5

New Line.l(r:p13udm37940-p13ulv19432) Units=km Length=0.0147742 bus1=p13udm37940.1.2 bus2=p13ulv19432.1.2 switch=n enabled=y phases=2 Linecode=1P_OH_AL_2/0_Rucina_2

New Line.l(r:p13udm37940-p13udt8924lv) Units=km Length=0.016718 bus1=p13udt8924lv.1.2 bus2=p13udm37940.1.2 switch=n enabled=y phases=2 Linecode=1P_OH_AL_2/0_Rucina_2

New Line.l(r:p13udt8925lv-p13ulv19433) Units=km Length=0.0143762 bus1=p13udt8925lv.1.2 bus2=p13ulv19433.1.2 switch=n enabled=y phases=2 Linecode=1P_OH_AL_2/0_Rucina_2

New Line.l(r:p13udt8926lv-p13ulv85139) Units=km Length=0.0160662 bus1=p13udt8926lv.1.2 bus2=p13ulv85139.1.2 switch=n enabled=y phases=2 Linecode=1P_UG_AL_1/0_Brenau_2

New Line.l(r:p13udm37942-p13ulv19434) Units=km Length=0.0110061 bus1=p13udm37942.1.2 bus2=p13ulv19434.1.2 switch=n enabled=y phases=2 Linecode=1P_UG_AL_2/0_Converse_2

New Line.l(r:p13udm37942-p13udt8926lv) Units=km Length=0.0091462 bus1=p13udt8926lv.1.2 bus2=p13udm37942.1.2 switch=n enabled=y phases=2 Linecode=1P_UG_AL_2/0_Converse_2

New Line.l(r:p13udt13863lv-p13ulv83292) Units=km Length=0.0123944 bus1=p13udt13863lv.1.2 bus2=p13ulv83292.1.2 switch=n enabled=y phases=2 Linecode=1P_UG_AL_1/0_Brenau_2

New Line.l(r:p13udm58840-p13ulv30347) Units=km Length=0.0131997 bus1=p13udm58840.1.2 bus2=p13ulv30347.1.2 switch=n enabled=y phases=2 Linecode=1P_UG_AL_1/0_Brenau_2

New Line.l(r:p13udm58840-p13udt13863lv) Units=km Length=0.0197681 bus1=p13udt13863lv.1.2 bus2=p13udm58840.1.2 switch=n enabled=y phases=2 Linecode=1P_UG_AL_1/0_Brenau_2

New Line.l(r:p13udm58841-p13ulv83287) Units=km Length=0.015872 bus1=p13udm58841.1.2 bus2=p13ulv83287.1.2 switch=n enabled=y phases=2 Linecode=1P_UG_AL_1/0_Brenau_2

New Line.l(r:p13udm58841-p13udt13863lv) Units=km Length=0.00884654 bus1=p13udt13863lv.1.2 bus2=p13udm58841.1.2 switch=n enabled=y phases=2 Linecode=1P_UG_AL_1/0_Brenau_2

New Line.l(r:p13udm58868-p13ulv30369) Units=km Length=0.0144146 bus1=p13udm58868.1.2 bus2=p13ulv30369.1.2 switch=n enabled=y phases=2 Linecode=1P_OH_AL_2/0_Rucina_2

New Line.l(r:p13udm58870-p13ulv83296) Units=km Length=0.0121735 bus1=p13udm58870.1.2 bus2=p13ulv83296.1.2 switch=n enabled=y phases=2 Linecode=1P_OH_AL_2/0_Rucina_2

New Line.l(r:p13udm58868-p13udm58870) Units=km Length=0.0375616 bus1=p13udm58868.1.2 bus2=p13udm58870.1.2 switch=n enabled=y phases=2 Linecode=1P_OH_AL_4/0_Zuzara_2

New Line.l(r:p13udm58868-p13udt13877lv) Units=km Length=0.00672652 bus1=p13udt13877lv.1.2 bus2=p13udm58868.1.2 switch=n enabled=y phases=2 Linecode=1P_OH_AL_2/0_Rucina_2

New Line.l(r:p13udm58869-p13ulv83293) Units=km Length=0.0103457 bus1=p13udm58869.1.2 bus2=p13ulv83293.1.2 switch=n enabled=y phases=2 Linecode=1P_OH_AL_2/0_Rucina_2

New Line.l(r:p13udm58869-p13udt13877lv) Units=km Length=0.023692 bus1=p13udt13877lv.1.2 bus2=p13udm58869.1.2 switch=n enabled=y phases=2 Linecode=1P_OH_AL_2/0_Rucina_2

New Line.l(r:p13udt14897lv-p13ulv32379) Units=km Length=0.015234500000000002 bus1=p13udt14897lv.1.2 bus2=p13ulv32379.1.2 switch=n enabled=y phases=2 Linecode=1P_OH_AL_2/0_Rucina_2

New Line.l(r:p13udm62529-p13ulv32381) Units=km Length=0.0157446 bus1=p13udm62529.1.2 bus2=p13ulv32381.1.2 switch=n enabled=y phases=2 Linecode=1P_OH_AL_2/0_Rucina_2

New Line.l(r:p13udm62529-p13ulv32394) Units=km Length=0.0142157 bus1=p13udm62529.1.2 bus2=p13ulv32394.1.2 switch=n enabled=y phases=2 Linecode=1P_OH_AL_2/0_Rucina_2_3

New Line.l(r:p13udm62529-p13udt14897lv) Units=km Length=0.0179653 bus1=p13udt14897lv.1.2 bus2=p13udm62529.1.2 switch=n enabled=y phases=2 Linecode=1P_OH_AL_2/0_Rucina_2_3

New Line.l(r:p13udm62532-p13ulv32464) Units=km Length=0.0151229 bus1=p13udm62532.1.2 bus2=p13ulv32464.1.2 switch=n enabled=y phases=2 Linecode=1P_OH_AL_2/0_Rucina_2

New Line.l(r:p13udm62531-p13ulv32462) Units=km Length=0.014954100000000001 bus1=p13udm62531.1.2 bus2=p13ulv32462.1.2 switch=n enabled=y phases=2 Linecode=1P_OH_AL_2/0_Rucina_2

New Line.l(r:p13udm62531-p13udm62532) Units=km Length=0.0159398 bus1=p13udm62532.1.2 bus2=p13udm62531.1.2 switch=n enabled=y phases=2 Linecode=1P_OH_AL_2/0_Rucina_2

New Line.l(r:p13udm62532-p13udt14897lv) Units=km Length=0.063835 bus1=p13udt14897lv.1.2 bus2=p13udm62532.1.2 switch=n enabled=y phases=2 Linecode=1P_OH_AL_4/0_Zuzara_2

New Line.l(r:p13udt14899lv-p13ulv32387) Units=km Length=0.0127511 bus1=p13udt14899lv.1.2 bus2=p13ulv32387.1.2 switch=n enabled=y phases=2 Linecode=1P_UG_AL_1/0_Brenau_2

New Line.l(r:p13udm62534-p13ulv32386) Units=km Length=0.0157177 bus1=p13udm62534.1.2 bus2=p13ulv32386.1.2 switch=n enabled=y phases=2 Linecode=1P_UG_AL_1/0_Brenau_2

New Line.l(r:p13udm62534-p13udt14899lv) Units=km Length=0.00964226 bus1=p13udt14899lv.1.2 bus2=p13udm62534.1.2 switch=n enabled=y phases=2 Linecode=1P_UG_AL_1/0_Brenau_2

New Line.l(r:p13udt14900lv-p13ulv32389) Units=km Length=0.0122732 bus1=p13udt14900lv.1.2 bus2=p13ulv32389.1.2 switch=n enabled=y phases=2 Linecode=1P_UG_AL_1/0_Brenau_2

New Line.l(r:p13udm62536-p13ulv32388) Units=km Length=0.012250800000000001 bus1=p13udm62536.1.2 bus2=p13ulv32388.1.2 switch=n enabled=y phases=2 Linecode=1P_UG_AL_1/0_Brenau_2

New Line.l(r:p13udm62539-p13ulv99933) Units=km Length=0.012492800000000002 bus1=p13udm62539.1.2 bus2=p13ulv99933.1.2 switch=n enabled=y phases=2 Linecode=1P_UG_AL_1/0_Brenau_2

New Line.l(r:p13udm62536-p13udm62539) Units=km Length=0.009472 bus1=p13udm62536.1.2 bus2=p13udm62539.1.2 switch=n enabled=y phases=2 Linecode=1P_UG_AL_1/0_Brenau_2

New Line.l(r:p13udm62536-p13udt14900lv) Units=km Length=0.00946305 bus1=p13udt14900lv.1.2 bus2=p13udm62536.1.2 switch=n enabled=y phases=2 Linecode=1P_UG_AL_2/0_Converse_2

New Line.l(r:p13udm62538-p13ulv32391) Units=km Length=0.0138434 bus1=p13udm62538.1.2 bus2=p13ulv32391.1.2 switch=n enabled=y phases=2 Linecode=1P_UG_AL_1/0_Brenau_2

New Line.l(r:p13udm62538-p13udt14900lv) Units=km Length=0.007697080000000001 bus1=p13udt14900lv.1.2 bus2=p13udm62538.1.2 switch=n enabled=y phases=2 Linecode=1P_UG_AL_1/0_Brenau_2

New Line.l(r:p13udt14901lv-p13ulv32392) Units=km Length=0.0114635 bus1=p13udt14901lv.1.2 bus2=p13ulv32392.1.2 switch=n enabled=y phases=2 Linecode=1P_UG_AL_1/0_Brenau_2

New Line.l(r:p13udt14902lv-p13ulv32393) Units=km Length=0.0125491 bus1=p13udt14902lv.1.2 bus2=p13ulv32393.1.2 switch=n enabled=y phases=2 Linecode=1P_OH_AL_2/0_Rucina_2

New Line.l(r:p13udt14906lv-p13ulv32398) Units=km Length=0.00478432 bus1=p13udt14906lv.1.2 bus2=p13ulv32398.1.2 switch=n enabled=y phases=2 Linecode=1P_OH_AL_2/0_Rucina_2

New Line.l(r:p13udt14921lv-p13ulv32430) Units=km Length=0.0154882 bus1=p13udt14921lv.1.2 bus2=p13ulv32430.1.2 switch=n enabled=y phases=2 Linecode=1P_OH_AL_2/0_Rucina_2

New Line.l(r:p13udm62589-p13ulv32429) Units=km Length=0.0151837 bus1=p13udm62589.1.2 bus2=p13ulv32429.1.2 switch=n enabled=y phases=2 Linecode=1P_OH_AL_2/0_Rucina_2

New Line.l(r:p13udm62592-p13ulv32446) Units=km Length=0.0127319 bus1=p13udm62592.1.2 bus2=p13ulv32446.1.2 switch=n enabled=y phases=2 Linecode=1P_OH_AL_2/0_Rucina_2

New Line.l(r:p13udm62589-p13udm62592) Units=km Length=0.0139928 bus1=p13udm62589.1.2 bus2=p13udm62592.1.2 switch=n enabled=y phases=2 Linecode=1P_OH_AL_2/0_Rucina_2

New Line.l(r:p13udm62589-p13udt14921lv) Units=km Length=0.00464332 bus1=p13udt14921lv.1.2 bus2=p13udm62589.1.2 switch=n enabled=y phases=2 Linecode=1P_OH_AL_2/0_Rucina_2

New Line.l(r:p13udm62591-p13ulv32432) Units=km Length=0.0158622 bus1=p13udm62591.1.2 bus2=p13ulv32432.1.2 switch=n enabled=y phases=2 Linecode=1P_OH_AL_2/0_Rucina_2

New Line.l(r:p13udm62591-p13udt14921lv) Units=km Length=0.0135623 bus1=p13udt14921lv.1.2 bus2=p13udm62591.1.2 switch=n enabled=y phases=2 Linecode=1P_OH_AL_2/0_Rucina_2

New Line.l(r:p13udm62593-p13ulv32433) Units=km Length=0.0152942 bus1=p13udm62593.1.2 bus2=p13ulv32433.1.2 switch=n enabled=y phases=2 Linecode=1P_OH_AL_2/0_Rucina_2

New Line.l(r:p13udm62595-p13ulv32435) Units=km Length=0.0157804 bus1=p13udm62595.1.2 bus2=p13ulv32435.1.2 switch=n enabled=y phases=2 Linecode=1P_OH_AL_2/0_Rucina_2

New Line.l(r:p13udm62593-p13udm62595) Units=km Length=0.0224657 bus1=p13udm62593.1.2 bus2=p13udm62595.1.2 switch=n enabled=y phases=2 Linecode=1P_OH_AL_2/0_Rucina_2
