New Load.load_p13ulv18786_1 conn=wye bus1=p13ulv18786.1 kV=0.12 Vminpu=0.8 Vmaxpu=1.2 model=1 kW=14.903888297911294 kvar=3.2369140555204043 Phases=1 yearly=res_kw_12479_pu

New Load.load_p13ulv18786_2 conn=wye bus1=p13ulv18786.2 kV=0.12 Vminpu=0.8 Vmaxpu=1.2 model=1 kW=14.903888297911294 kvar=3.2369140555204043 Phases=1 yearly=res_kw_12479_pu

New Load.load_p13ulv18787_1 conn=wye bus1=p13ulv18787.1 kV=0.12 Vminpu=0.8 Vmaxpu=1.2 model=1 kW=6.195494065840554 kvar=2.2918200533543684 Phases=1 yearly=res_kw_13855_pu

New Load.load_p13ulv18787_2 conn=wye bus1=p13ulv18787.2 kV=0.12 Vminpu=0.8 Vmaxpu=1.2 model=1 kW=6.195494065840554 kvar=2.2918200533543684 Phases=1 yearly=res_kw_13855_pu

New Load.load_p13ulv18788_1 conn=wye bus1=p13ulv18788.1 kV=0.12 Vminpu=0.8 Vmaxpu=1.2 model=1 kW=4.1877469970558 kvar=1.260586742210779 Phases=1 yearly=res_kw_10211_pu

New Load.load_p13ulv18788_2 conn=wye bus1=p13ulv18788.2 kV=0.12 Vminpu=0.8 Vmaxpu=1.2 model=1 kW=4.1877469970558 kvar=1.260586742210779 Phases=1 yearly=res_kw_10211_pu

New Load.load_p13ulv18789_1 conn=wye bus1=p13ulv18789.1 kV=0.12 Vminpu=0.8 Vmaxpu=1.2 model=1 kW=4.978924462157091 kvar=1.5029863072585232 Phases=1 yearly=res_kw_1389_pu

New Load.load_p13ulv18789_2 conn=wye bus1=p13ulv18789.2 kV=0.12 Vminpu=0.8 Vmaxpu=1.2 model=1 kW=4.978924462157091 kvar=1.5029863072585232 Phases=1 yearly=res_kw_1389_pu

New Load.load_p13ulv18790_1 conn=wye bus1=p13ulv18790.1 kV=0.12 Vminpu=0.8 Vmaxpu=1.2 model=1 kW=14.264042004681256 kvar=0.8943117370230316 Phases=1 yearly=res_kw_4848_pu

New Load.load_p13ulv18790_2 conn=wye bus1=p13ulv18790.2 kV=0.12 Vminpu=0.8 Vmaxpu=1.2 model=1 kW=14.264042004681256 kvar=0.8943117370230316 Phases=1 yearly=res_kw_4848_pu

New Load.load_p13ulv18791_1 conn=wye bus1=p13ulv18791.1 kV=0.12 Vminpu=0.8 Vmaxpu=1.2 model=1 kW=9.535252812300099 kvar=2.708042162201308 Phases=1 yearly=res_kw_1154_pu

New Load.load_p13ulv18791_2 conn=wye bus1=p13ulv18791.2 kV=0.12 Vminpu=0.8 Vmaxpu=1.2 model=1 kW=9.535252812300099 kvar=2.708042162201308 Phases=1 yearly=res_kw_1154_pu

New Load.load_p13ulv18792_1 conn=wye bus1=p13ulv18792.1 kV=0.12 Vminpu=0.8 Vmaxpu=1.2 model=1 kW=11.128565358743977 kvar=0.1521404856162588 Phases=1 yearly=res_kw_9871_pu

New Load.load_p13ulv18792_2 conn=wye bus1=p13ulv18792.2 kV=0.12 Vminpu=0.8 Vmaxpu=1.2 model=1 kW=11.128565358743977 kvar=0.1521404856162588 Phases=1 yearly=res_kw_9871_pu

New Load.load_p13ulv18793_1 conn=wye bus1=p13ulv18793.1 kV=0.12 Vminpu=0.8 Vmaxpu=1.2 model=1 kW=10.090656589534623 kvar=1.2886243054645354 Phases=1 yearly=res_kw_12608_pu

New Load.load_p13ulv18793_2 conn=wye bus1=p13ulv18793.2 kV=0.12 Vminpu=0.8 Vmaxpu=1.2 model=1 kW=10.090656589534623 kvar=1.2886243054645354 Phases=1 yearly=res_kw_12608_pu

New Load.load_p13ulv18794_1 conn=wye bus1=p13ulv18793.1 kV=0.12 Vminpu=0.8 Vmaxpu=1.2 model=1 kW=1.3571348598185444 kvar=0.7897285261495656 Phases=1 yearly=res_kw_3364_pu

New Load.load_p13ulv18794_2 conn=wye bus1=p13ulv18793.2 kV=0.12 Vminpu=0.8 Vmaxpu=1.2 model=1 kW=1.3571348598185444 kvar=0.7897285261495656 Phases=1 yearly=res_kw_3364_pu

New Load.load_p13ulv18795_1 conn=wye bus1=p13ulv18795.1 kV=0.12 Vminpu=0.8 Vmaxpu=1.2 model=1 kW=3.7865903007860364 kvar=0.8434944059225316 Phases=1 yearly=com_kw_29164_pu

New Load.load_p13ulv18795_2 conn=wye bus1=p13ulv18795.2 kV=0.12 Vminpu=0.8 Vmaxpu=1.2 model=1 kW=3.7865903007860364 kvar=0.8434944059225316 Phases=1 yearly=com_kw_29164_pu

New Load.load_p13ulv18796_1 conn=wye bus1=p13ulv18796.1 kV=0.12 Vminpu=0.8 Vmaxpu=1.2 model=1 kW=3.3729897643354136 kvar=0.8074671946641432 Phases=1 yearly=com_kw_39334_pu

New Load.load_p13ulv18796_2 conn=wye bus1=p13ulv18796.2 kV=0.12 Vminpu=0.8 Vmaxpu=1.2 model=1 kW=3.3729897643354136 kvar=0.8074671946641432 Phases=1 yearly=com_kw_39334_pu

New Load.load_p13ulv18797 conn=wye bus1=p13ulv18797.1.2.3 kV=0.48 Vminpu=0.8 Vmaxpu=1.2 model=1 kW=34.015983934630476 kvar=7.185161828662819 Phases=3 yearly=com_kw_17177_pu

New Load.load_p13ulv18798_1 conn=wye bus1=p13ulv18798.1 kV=0.12 Vminpu=0.8 Vmaxpu=1.2 model=1 kW=11.85205298428591 kvar=1.92532021593746 Phases=1 yearly=res_kw_14716_pu

New Load.load_p13ulv18798_2 conn=wye bus1=p13ulv18798.2 kV=0.12 Vminpu=0.8 Vmaxpu=1.2 model=1 kW=11.85205298428591 kvar=1.92532021593746 Phases=1 yearly=res_kw_14716_pu

New Load.load_p13ulv18799_1 conn=wye bus1=p13ulv18799.1 kV=0.12 Vminpu=0.8 Vmaxpu=1.2 model=1 kW=7.799747886941167 kvar=1.573922770898516 Phases=1 yearly=com_kw_29075_pu

New Load.load_p13ulv18799_2 conn=wye bus1=p13ulv18799.2 kV=0.12 Vminpu=0.8 Vmaxpu=1.2 model=1 kW=7.799747886941167 kvar=1.573922770898516 Phases=1 yearly=com_kw_29075_pu

New Load.load_p13ulv18800_1 conn=wye bus1=p13ulv18800.1 kV=0.12 Vminpu=0.8 Vmaxpu=1.2 model=1 kW=6.887268818021247 kvar=2.0124643291307467 Phases=1 yearly=res_kw_3094_pu

New Load.load_p13ulv18800_2 conn=wye bus1=p13ulv18800.2 kV=0.12 Vminpu=0.8 Vmaxpu=1.2 model=1 kW=6.887268818021247 kvar=2.0124643291307467 Phases=1 yearly=res_kw_3094_pu

New Load.load_p13ulv18801_1 conn=wye bus1=p13ulv18801.1 kV=0.12 Vminpu=0.8 Vmaxpu=1.2 model=1 kW=10.365085146994144 kvar=2.3584667885946176 Phases=1 yearly=res_kw_4592_pu

New Load.load_p13ulv18801_2 conn=wye bus1=p13ulv18801.2 kV=0.12 Vminpu=0.8 Vmaxpu=1.2 model=1 kW=10.365085146994144 kvar=2.3584667885946176 Phases=1 yearly=res_kw_4592_pu

New Load.load_p13ulv18802_1 conn=wye bus1=p13ulv18802.1 kV=0.12 Vminpu=0.8 Vmaxpu=1.2 model=1 kW=3.8258582671537202 kvar=0.3686357409073889 Phases=1 yearly=com_kw_16392_pu

New Load.load_p13ulv18802_2 conn=wye bus1=p13ulv18802.2 kV=0.12 Vminpu=0.8 Vmaxpu=1.2 model=1 kW=3.8258582671537202 kvar=0.3686357409073889 Phases=1 yearly=com_kw_16392_pu

New Load.load_p13ulv18803_1 conn=wye bus1=p13ulv18803.1 kV=0.12 Vminpu=0.8 Vmaxpu=1.2 model=1 kW=5.241627036705313 kvar=1.1206683647377567 Phases=1 yearly=res_kw_4845_pu

New Load.load_p13ulv18803_2 conn=wye bus1=p13ulv18803.2 kV=0.12 Vminpu=0.8 Vmaxpu=1.2 model=1 kW=5.241627036705313 kvar=1.1206683647377567 Phases=1 yearly=res_kw_4845_pu

New Load.load_p13ulv18804_1 conn=wye bus1=p13ulv18804.1 kV=0.12 Vminpu=0.8 Vmaxpu=1.2 model=1 kW=5.6513633845246565 kvar=1.2660728679082136 Phases=1 yearly=res_kw_4922_pu

New Load.load_p13ulv18804_2 conn=wye bus1=p13ulv18804.2 kV=0.12 Vminpu=0.8 Vmaxpu=1.2 model=1 kW=5.6513633845246565 kvar=1.2660728679082136 Phases=1 yearly=res_kw_4922_pu

New Load.load_p13ulv18805_1 conn=wye bus1=p13ulv18805.1 kV=0.12 Vminpu=0.8 Vmaxpu=1.2 model=1 kW=1.685213211371405 kvar=0.7584354740780123 Phases=1 yearly=res_kw_10142_pu

New Load.load_p13ulv18805_2 conn=wye bus1=p13ulv18805.2 kV=0.12 Vminpu=0.8 Vmaxpu=1.2 model=1 kW=1.685213211371405 kvar=0.7584354740780123 Phases=1 yearly=res_kw_10142_pu

New Load.load_p13ulv18806_1 conn=wye bus1=p13ulv18806.1 kV=0.12 Vminpu=0.8 Vmaxpu=1.2 model=1 kW=7.097541464710096 kvar=1.9966184091014842 Phases=1 yearly=res_kw_2603_pu

New Load.load_p13ulv18806_2 conn=wye bus1=p13ulv18806.2 kV=0.12 Vminpu=0.8 Vmaxpu=1.2 model=1 kW=7.097541464710096 kvar=1.9966184091014842 Phases=1 yearly=res_kw_2603_pu

New Load.load_p13ulv18807_1 conn=wye bus1=p13ulv18807.1 kV=0.12 Vminpu=0.8 Vmaxpu=1.2 model=1 kW=2.728219309881814 kvar=0.763318441891455 Phases=1 yearly=res_kw_10231_pu

New Load.load_p13ulv18807_2 conn=wye bus1=p13ulv18807.2 kV=0.12 Vminpu=0.8 Vmaxpu=1.2 model=1 kW=2.728219309881814 kvar=0.763318441891455 Phases=1 yearly=res_kw_10231_pu

New Load.load_p13ulv18808_1 conn=wye bus1=p13ulv18808.1 kV=0.12 Vminpu=0.8 Vmaxpu=1.2 model=1 kW=7.493245834115696 kvar=2.26232044940833 Phases=1 yearly=res_kw_2562_pu

New Load.load_p13ulv18808_2 conn=wye bus1=p13ulv18808.2 kV=0.12 Vminpu=0.8 Vmaxpu=1.2 model=1 kW=7.493245834115696 kvar=2.26232044940833 Phases=1 yearly=res_kw_2562_pu

New Load.load_p13ulv18809_1 conn=wye bus1=p13ulv18809.1 kV=0.12 Vminpu=0.8 Vmaxpu=1.2 model=1 kW=2.6320927212712784 kvar=1.1517711525304175 Phases=1 yearly=res_kw_10938_pu

New Load.load_p13ulv18809_2 conn=wye bus1=p13ulv18809.2 kV=0.12 Vminpu=0.8 Vmaxpu=1.2 model=1 kW=2.6320927212712784 kvar=1.1517711525304175 Phases=1 yearly=res_kw_10938_pu

New Load.load_p13ulv18810_1 conn=wye bus1=p13ulv18810.1 kV=0.12 Vminpu=0.8 Vmaxpu=1.2 model=1 kW=4.480926648879515 kvar=0.30389827867828717 Phases=1 yearly=res_kw_11983_pu

New Load.load_p13ulv18810_2 conn=wye bus1=p13ulv18810.2 kV=0.12 Vminpu=0.8 Vmaxpu=1.2 model=1 kW=4.480926648879515 kvar=0.30389827867828717 Phases=1 yearly=res_kw_11983_pu

New Load.load_p13ulv18811_1 conn=wye bus1=p13ulv18811.1 kV=0.12 Vminpu=0.8 Vmaxpu=1.2 model=1 kW=5.385772821478587 kvar=1.6009172710699977 Phases=1 yearly=com_kw_20964_pu

New Load.load_p13ulv18811_2 conn=wye bus1=p13ulv18811.2 kV=0.12 Vminpu=0.8 Vmaxpu=1.2 model=1 kW=5.385772821478587 kvar=1.6009172710699977 Phases=1 yearly=com_kw_20964_pu

New Load.load_p13ulv18812_1 conn=wye bus1=p13ulv18812.1 kV=0.12 Vminpu=0.8 Vmaxpu=1.2 model=1 kW=4.978924462157091 kvar=1.5029863072585232 Phases=1 yearly=res_kw_1389_pu

New Load.load_p13ulv18812_2 conn=wye bus1=p13ulv18812.2 kV=0.12 Vminpu=0.8 Vmaxpu=1.2 model=1 kW=4.978924462157091 kvar=1.5029863072585232 Phases=1 yearly=res_kw_1389_pu

New Load.load_p13ulv18813_1 conn=wye bus1=p13ulv18812.1 kV=0.12 Vminpu=0.8 Vmaxpu=1.2 model=1 kW=3.163532585010919 kvar=0.2110868081047307 Phases=1 yearly=res_kw_13175_pu

New Load.load_p13ulv18813_2 conn=wye bus1=p13ulv18812.2 kV=0.12 Vminpu=0.8 Vmaxpu=1.2 model=1 kW=3.163532585010919 kvar=0.2110868081047307 Phases=1 yearly=res_kw_13175_pu

New Load.load_p13ulv18814_1 conn=wye bus1=p13ulv18814.1 kV=0.12 Vminpu=0.8 Vmaxpu=1.2 model=1 kW=7.714618443739876 kvar=0.3831254467062534 Phases=1 yearly=res_kw_12609_pu

New Load.load_p13ulv18814_2 conn=wye bus1=p13ulv18814.2 kV=0.12 Vminpu=0.8 Vmaxpu=1.2 model=1 kW=7.714618443739876 kvar=0.3831254467062534 Phases=1 yearly=res_kw_12609_pu

New Load.load_p13ulv18815_1 conn=wye bus1=p13ulv18815.1 kV=0.12 Vminpu=0.8 Vmaxpu=1.2 model=1 kW=5.051261256930189 kvar=0.44795127629134507 Phases=1 yearly=com_kw_1343_pu

New Load.load_p13ulv18815_2 conn=wye bus1=p13ulv18815.2 kV=0.12 Vminpu=0.8 Vmaxpu=1.2 model=1 kW=5.051261256930189 kvar=0.44795127629134507 Phases=1 yearly=com_kw_1343_pu

New Load.load_p13ulv18816_1 conn=wye bus1=p13ulv18816.1 kV=0.12 Vminpu=0.8 Vmaxpu=1.2 model=1 kW=6.138881746209117 kvar=1.8230203695946279 Phases=1 yearly=res_kw_7158_pu

New Load.load_p13ulv18816_2 conn=wye bus1=p13ulv18816.2 kV=0.12 Vminpu=0.8 Vmaxpu=1.2 model=1 kW=6.138881746209117 kvar=1.8230203695946279 Phases=1 yearly=res_kw_7158_pu

New Load.load_p13ulv18817_1 conn=wye bus1=p13ulv18817.1 kV=0.12 Vminpu=0.8 Vmaxpu=1.2 model=1 kW=2.942829069048031 kvar=0.025560880160820944 Phases=1 yearly=com_kw_1308_pu

New Load.load_p13ulv18817_2 conn=wye bus1=p13ulv18817.2 kV=0.12 Vminpu=0.8 Vmaxpu=1.2 model=1 kW=2.942829069048031 kvar=0.025560880160820944 Phases=1 yearly=com_kw_1308_pu

New Load.load_p13ulv18818_1 conn=wye bus1=p13ulv18818.1 kV=0.12 Vminpu=0.8 Vmaxpu=1.2 model=1 kW=2.6336247552290706 kvar=0.8034540577596695 Phases=1 yearly=res_kw_6751_pu

New Load.load_p13ulv18818_2 conn=wye bus1=p13ulv18818.2 kV=0.12 Vminpu=0.8 Vmaxpu=1.2 model=1 kW=2.6336247552290706 kvar=0.8034540577596695 Phases=1 yearly=res_kw_6751_pu

New Load.load_p13ulv18819_1 conn=wye bus1=p13ulv18819.1 kV=0.12 Vminpu=0.8 Vmaxpu=1.2 model=1 kW=6.216155687306457 kvar=2.414101925818777 Phases=1 yearly=res_kw_14920_pu

New Load.load_p13ulv18819_2 conn=wye bus1=p13ulv18819.2 kV=0.12 Vminpu=0.8 Vmaxpu=1.2 model=1 kW=6.216155687306457 kvar=2.414101925818777 Phases=1 yearly=res_kw_14920_pu

New Load.load_p13ulv18820 conn=wye bus1=p13ulv18820.1.2.3 kV=0.48 Vminpu=0.8 Vmaxpu=1.2 model=1 kW=51.35036123073018 kvar=19.254856888182605 Phases=3 yearly=res_kw_14309_pu

New Load.load_p13ulv18824 conn=wye bus1=p13ulv18824.1.2.3 kV=0.48 Vminpu=0.8 Vmaxpu=1.2 model=1 kW=58.3653171984809 kvar=3.876508998375735 Phases=3 yearly=res_kw_1779_pu

New Load.load_p13ulv18847_1 conn=wye bus1=p13ulv18847.1 kV=0.12 Vminpu=0.8 Vmaxpu=1.2 model=1 kW=20.93611941805376 kvar=6.899456920624045 Phases=1 yearly=res_kw_13149_pu

New Load.load_p13ulv18847_2 conn=wye bus1=p13ulv18847.2 kV=0.12 Vminpu=0.8 Vmaxpu=1.2 model=1 kW=20.93611941805376 kvar=6.899456920624045 Phases=1 yearly=res_kw_13149_pu

New Load.load_p13ulv18848_1 conn=wye bus1=p13ulv18847.1 kV=0.12 Vminpu=0.8 Vmaxpu=1.2 model=1 kW=9.535252812300099 kvar=2.708042162201308 Phases=1 yearly=res_kw_1154_pu

New Load.load_p13ulv18848_2 conn=wye bus1=p13ulv18847.2 kV=0.12 Vminpu=0.8 Vmaxpu=1.2 model=1 kW=9.535252812300099 kvar=2.708042162201308 Phases=1 yearly=res_kw_1154_pu

New Load.load_p13ulv18849 conn=wye bus1=p13ulv18849.1.2.3 kV=0.48 Vminpu=0.8 Vmaxpu=1.2 model=1 kW=48.604528403960686 kvar=24.616303828503007 Phases=3 yearly=res_kw_7116_pu

New Load.load_p13ulv18850_1 conn=wye bus1=p13ulv18850.1 kV=0.12 Vminpu=0.8 Vmaxpu=1.2 model=1 kW=2.606959916668558 kvar=0.5550307077474157 Phases=1 yearly=com_kw_33605_pu

New Load.load_p13ulv18850_2 conn=wye bus1=p13ulv18850.2 kV=0.12 Vminpu=0.8 Vmaxpu=1.2 model=1 kW=2.606959916668558 kvar=0.5550307077474157 Phases=1 yearly=com_kw_33605_pu

New Load.load_p13ulv18851_1 conn=wye bus1=p13ulv18851.1 kV=0.12 Vminpu=0.8 Vmaxpu=1.2 model=1 kW=5.385772821478587 kvar=1.6009172710699977 Phases=1 yearly=com_kw_20964_pu

New Load.load_p13ulv18851_2 conn=wye bus1=p13ulv18851.2 kV=0.12 Vminpu=0.8 Vmaxpu=1.2 model=1 kW=5.385772821478587 kvar=1.6009172710699977 Phases=1 yearly=com_kw_20964_pu

New Load.load_p13ulv18852_1 conn=wye bus1=p13ulv18852.1 kV=0.12 Vminpu=0.8 Vmaxpu=1.2 model=1 kW=1.8755168938707782 kvar=0.2009555085079469 Phases=1 yearly=com_kw_22700_pu

New Load.load_p13ulv18852_2 conn=wye bus1=p13ulv18852.2 kV=0.12 Vminpu=0.8 Vmaxpu=1.2 model=1 kW=1.8755168938707782 kvar=0.2009555085079469 Phases=1 yearly=com_kw_22700_pu

New Load.load_p13ulv18853_1 conn=wye bus1=p13ulv18853.1 kV=0.12 Vminpu=0.8 Vmaxpu=1.2 model=1 kW=3.238280476701918 kvar=0.29730583717256653 Phases=1 yearly=com_kw_33300_pu

New Load.load_p13ulv18853_2 conn=wye bus1=p13ulv18853.2 kV=0.12 Vminpu=0.8 Vmaxpu=1.2 model=1 kW=3.238280476701918 kvar=0.29730583717256653 Phases=1 yearly=com_kw_33300_pu

New Load.load_p13ulv18854_1 conn=wye bus1=p13ulv18854.1 kV=0.12 Vminpu=0.8 Vmaxpu=1.2 model=1 kW=6.044228536536975 kvar=1.36590600324157 Phases=1 yearly=com_kw_41364_pu

New Load.load_p13ulv18854_2 conn=wye bus1=p13ulv18854.2 kV=0.12 Vminpu=0.8 Vmaxpu=1.2 model=1 kW=6.044228536536975 kvar=1.36590600324157 Phases=1 yearly=com_kw_41364_pu

New Load.load_p13ulv18855_1 conn=wye bus1=p13ulv18855.1 kV=0.12 Vminpu=0.8 Vmaxpu=1.2 model=1 kW=8.72837807783759 kvar=2.0160722528335726 Phases=1 yearly=res_kw_3247_pu

New Load.load_p13ulv18855_2 conn=wye bus1=p13ulv18855.2 kV=0.12 Vminpu=0.8 Vmaxpu=1.2 model=1 kW=8.72837807783759 kvar=2.0160722528335726 Phases=1 yearly=res_kw_3247_pu

New Load.load_p13ulv18856_1 conn=wye bus1=p13ulv18856.1 kV=0.12 Vminpu=0.8 Vmaxpu=1.2 model=1 kW=8.444938909632649 kvar=1.8625122481441998 Phases=1 yearly=com_kw_29371_pu

New Load.load_p13ulv18856_2 conn=wye bus1=p13ulv18856.2 kV=0.12 Vminpu=0.8 Vmaxpu=1.2 model=1 kW=8.444938909632649 kvar=1.8625122481441998 Phases=1 yearly=com_kw_29371_pu

New Load.load_p13ulv18857_1 conn=wye bus1=p13ulv18857.1 kV=0.12 Vminpu=0.8 Vmaxpu=1.2 model=1 kW=9.132270782906563 kvar=1.511453973316917 Phases=1 yearly=res_kw_14146_pu

New Load.load_p13ulv18857_2 conn=wye bus1=p13ulv18857.2 kV=0.12 Vminpu=0.8 Vmaxpu=1.2 model=1 kW=9.132270782906563 kvar=1.511453973316917 Phases=1 yearly=res_kw_14146_pu

New Load.load_p13ulv18858_1 conn=wye bus1=p13ulv18858.1 kV=0.12 Vminpu=0.8 Vmaxpu=1.2 model=1 kW=7.79439857662195 kvar=1.515652639992393 Phases=1 yearly=res_kw_6546_pu

New Load.load_p13ulv18858_2 conn=wye bus1=p13ulv18858.2 kV=0.12 Vminpu=0.8 Vmaxpu=1.2 model=1 kW=7.79439857662195 kvar=1.515652639992393 Phases=1 yearly=res_kw_6546_pu

New Load.load_p13ulv18859_1 conn=wye bus1=p13ulv18859.1 kV=0.12 Vminpu=0.8 Vmaxpu=1.2 model=1 kW=2.126152952796234 kvar=0.5968101844221324 Phases=1 yearly=res_kw_13960_pu

New Load.load_p13ulv18859_2 conn=wye bus1=p13ulv18859.2 kV=0.12 Vminpu=0.8 Vmaxpu=1.2 model=1 kW=2.126152952796234 kvar=0.5968101844221324 Phases=1 yearly=res_kw_13960_pu

New Load.load_p13ulv18860 conn=wye bus1=p13ulv18860.1.2.3 kV=0.48 Vminpu=0.8 Vmaxpu=1.2 model=1 kW=26.891879576810382 kvar=5.201791252477868 Phases=3 yearly=com_kw_1324_pu

New Load.load_p13ulv18861_1 conn=wye bus1=p13ulv18859.1 kV=0.12 Vminpu=0.8 Vmaxpu=1.2 model=1 kW=6.2930994643856595 kvar=0.9073205938076818 Phases=1 yearly=res_kw_9104_pu

New Load.load_p13ulv18861_2 conn=wye bus1=p13ulv18859.2 kV=0.12 Vminpu=0.8 Vmaxpu=1.2 model=1 kW=6.2930994643856595 kvar=0.9073205938076818 Phases=1 yearly=res_kw_9104_pu

New Load.load_p13ulv18862_1 conn=wye bus1=p13ulv18862.1 kV=0.12 Vminpu=0.8 Vmaxpu=1.2 model=1 kW=10.143588070665237 kvar=3.461454262342785 Phases=1 yearly=res_kw_8535_pu

New Load.load_p13ulv18862_2 conn=wye bus1=p13ulv18862.2 kV=0.12 Vminpu=0.8 Vmaxpu=1.2 model=1 kW=10.143588070665237 kvar=3.461454262342785 Phases=1 yearly=res_kw_8535_pu

New Load.load_p13ulv18863_1 conn=wye bus1=p13ulv18863.1 kV=0.12 Vminpu=0.8 Vmaxpu=1.2 model=1 kW=2.259610252563528 kvar=0.6002661771987786 Phases=1 yearly=com_kw_39952_pu

New Load.load_p13ulv18863_2 conn=wye bus1=p13ulv18863.2 kV=0.12 Vminpu=0.8 Vmaxpu=1.2 model=1 kW=2.259610252563528 kvar=0.6002661771987786 Phases=1 yearly=com_kw_39952_pu

New Load.load_p13ulv18864_1 conn=wye bus1=p13ulv18864.1 kV=0.12 Vminpu=0.8 Vmaxpu=1.2 model=1 kW=2.359977223622412 kvar=0.2969054470018346 Phases=1 yearly=com_kw_33783_pu

New Load.load_p13ulv18864_2 conn=wye bus1=p13ulv18864.2 kV=0.12 Vminpu=0.8 Vmaxpu=1.2 model=1 kW=2.359977223622412 kvar=0.2969054470018346 Phases=1 yearly=com_kw_33783_pu

New Load.load_p13ulv18865_1 conn=wye bus1=p13ulv18865.1 kV=0.12 Vminpu=0.8 Vmaxpu=1.2 model=1 kW=2.5614762943111877 kvar=0.5370528430833497 Phases=1 yearly=com_kw_16870_pu

New Load.load_p13ulv18865_2 conn=wye bus1=p13ulv18865.2 kV=0.12 Vminpu=0.8 Vmaxpu=1.2 model=1 kW=2.5614762943111877 kvar=0.5370528430833497 Phases=1 yearly=com_kw_16870_pu

New Load.load_p13ulv18866_1 conn=wye bus1=p13ulv18866.1 kV=0.12 Vminpu=0.8 Vmaxpu=1.2 model=1 kW=3.780459138469068 kvar=1.0040361578043995 Phases=1 yearly=res_kw_9428_pu

New Load.load_p13ulv18866_2 conn=wye bus1=p13ulv18866.2 kV=0.12 Vminpu=0.8 Vmaxpu=1.2 model=1 kW=3.780459138469068 kvar=1.0040361578043995 Phases=1 yearly=res_kw_9428_pu

New Load.load_p13ulv18867_1 conn=wye bus1=p13ulv18864.1 kV=0.12 Vminpu=0.8 Vmaxpu=1.2 model=1 kW=12.86852410240201 kvar=2.1444565960638284 Phases=1 yearly=res_kw_6845_pu

New Load.load_p13ulv18867_2 conn=wye bus1=p13ulv18864.2 kV=0.12 Vminpu=0.8 Vmaxpu=1.2 model=1 kW=12.86852410240201 kvar=2.1444565960638284 Phases=1 yearly=res_kw_6845_pu

New Load.load_p13ulv18868_1 conn=wye bus1=p13ulv18868.1 kV=0.12 Vminpu=0.8 Vmaxpu=1.2 model=1 kW=13.833553444183956 kvar=0.8380612742196274 Phases=1 yearly=res_kw_4363_pu

New Load.load_p13ulv18868_2 conn=wye bus1=p13ulv18868.2 kV=0.12 Vminpu=0.8 Vmaxpu=1.2 model=1 kW=13.833553444183956 kvar=0.8380612742196274 Phases=1 yearly=res_kw_4363_pu

New Load.load_p13ulv18869_1 conn=wye bus1=p13ulv18869.1 kV=0.12 Vminpu=0.8 Vmaxpu=1.2 model=1 kW=2.8145950466373417 kvar=0.09093602970127403 Phases=1 yearly=res_kw_910_pu

New Load.load_p13ulv18869_2 conn=wye bus1=p13ulv18869.2 kV=0.12 Vminpu=0.8 Vmaxpu=1.2 model=1 kW=2.8145950466373417 kvar=0.09093602970127403 Phases=1 yearly=res_kw_910_pu

New Load.load_p13ulv18870_1 conn=wye bus1=p13ulv18870.1 kV=0.12 Vminpu=0.8 Vmaxpu=1.2 model=1 kW=3.902887215219663 kvar=1.111231385342157 Phases=1 yearly=com_kw_2430_pu

New Load.load_p13ulv18870_2 conn=wye bus1=p13ulv18870.2 kV=0.12 Vminpu=0.8 Vmaxpu=1.2 model=1 kW=3.902887215219663 kvar=1.111231385342157 Phases=1 yearly=com_kw_2430_pu

New Load.load_p13ulv18871_1 conn=wye bus1=p13ulv18871.1 kV=0.12 Vminpu=0.8 Vmaxpu=1.2 model=1 kW=10.452365615620888 kvar=2.227510758582623 Phases=1 yearly=res_kw_11186_pu

New Load.load_p13ulv18871_2 conn=wye bus1=p13ulv18871.2 kV=0.12 Vminpu=0.8 Vmaxpu=1.2 model=1 kW=10.452365615620888 kvar=2.227510758582623 Phases=1 yearly=res_kw_11186_pu

New Load.load_p13ulv18872_1 conn=wye bus1=p13ulv18872.1 kV=0.12 Vminpu=0.8 Vmaxpu=1.2 model=1 kW=1.1024311883264026 kvar=0.3929988371277374 Phases=1 yearly=res_kw_5148_pu

New Load.load_p13ulv18872_2 conn=wye bus1=p13ulv18872.2 kV=0.12 Vminpu=0.8 Vmaxpu=1.2 model=1 kW=1.1024311883264026 kvar=0.3929988371277374 Phases=1 yearly=res_kw_5148_pu

New Load.load_p13ulv18873 conn=wye bus1=p13ulv18873.1.2.3 kV=0.48 Vminpu=0.8 Vmaxpu=1.2 model=1 kW=23.375684319251025 kvar=6.241643614946959 Phases=3 yearly=com_kw_19420_pu

New Load.load_p13ulv18874_1 conn=wye bus1=p13ulv18874.1 kV=0.12 Vminpu=0.8 Vmaxpu=1.2 model=1 kW=6.044228536536975 kvar=1.36590600324157 Phases=1 yearly=com_kw_41364_pu

New Load.load_p13ulv18874_2 conn=wye bus1=p13ulv18874.2 kV=0.12 Vminpu=0.8 Vmaxpu=1.2 model=1 kW=6.044228536536975 kvar=1.36590600324157 Phases=1 yearly=com_kw_41364_pu

New Load.load_p13ulv18875_1 conn=wye bus1=p13ulv18875.1 kV=0.12 Vminpu=0.8 Vmaxpu=1.2 model=1 kW=5.385772821478587 kvar=1.6009172710699977 Phases=1 yearly=com_kw_20964_pu

New Load.load_p13ulv18875_2 conn=wye bus1=p13ulv18875.2 kV=0.12 Vminpu=0.8 Vmaxpu=1.2 model=1 kW=5.385772821478587 kvar=1.6009172710699977 Phases=1 yearly=com_kw_20964_pu

New Load.load_p13ulv18876_1 conn=wye bus1=p13ulv18876.1 kV=0.12 Vminpu=0.8 Vmaxpu=1.2 model=1 kW=2.933160184061541 kvar=1.3637613468039889 Phases=1 yearly=res_kw_12295_pu

New Load.load_p13ulv18876_2 conn=wye bus1=p13ulv18876.2 kV=0.12 Vminpu=0.8 Vmaxpu=1.2 model=1 kW=2.933160184061541 kvar=1.3637613468039889 Phases=1 yearly=res_kw_12295_pu

New Load.load_p13ulv18877_1 conn=wye bus1=p13ulv18877.1 kV=0.12 Vminpu=0.8 Vmaxpu=1.2 model=1 kW=3.3729897643354136 kvar=0.8074671946641432 Phases=1 yearly=com_kw_39334_pu

New Load.load_p13ulv18877_2 conn=wye bus1=p13ulv18877.2 kV=0.12 Vminpu=0.8 Vmaxpu=1.2 model=1 kW=3.3729897643354136 kvar=0.8074671946641432 Phases=1 yearly=com_kw_39334_pu

New Load.load_p13ulv18878 conn=wye bus1=p13ulv18878.1.2.3 kV=0.48 Vminpu=0.8 Vmaxpu=1.2 model=1 kW=35.949397192829274 kvar=10.493251366370087 Phases=3 yearly=com_kw_21103_pu

New Load.load_p13ulv18879 conn=wye bus1=p13ulv18879.1.2.3 kV=0.48 Vminpu=0.8 Vmaxpu=1.2 model=1 kW=41.469880304568356 kvar=14.169476888695012 Phases=3 yearly=com_kw_33754_pu

New Load.load_p13ulv18880_1 conn=wye bus1=p13ulv18880.1 kV=0.12 Vminpu=0.8 Vmaxpu=1.2 model=1 kW=4.746238988679234 kvar=0.8164701125186392 Phases=1 yearly=com_kw_39239_pu

New Load.load_p13ulv18880_2 conn=wye bus1=p13ulv18880.2 kV=0.12 Vminpu=0.8 Vmaxpu=1.2 model=1 kW=4.746238988679234 kvar=0.8164701125186392 Phases=1 yearly=com_kw_39239_pu

New Load.load_p13ulv18881 conn=wye bus1=p13ulv18881.1.2.3 kV=0.48 Vminpu=0.8 Vmaxpu=1.2 model=1 kW=66.85014812941762 kvar=13.314067304587313 Phases=3 yearly=com_kw_35444_pu

New Load.load_p13ulv18882_1 conn=wye bus1=p13ulv18882.1 kV=0.12 Vminpu=0.8 Vmaxpu=1.2 model=1 kW=14.804436716202662 kvar=0.8568543213872394 Phases=1 yearly=com_kw_16158_pu

New Load.load_p13ulv18882_2 conn=wye bus1=p13ulv18882.2 kV=0.12 Vminpu=0.8 Vmaxpu=1.2 model=1 kW=14.804436716202662 kvar=0.8568543213872394 Phases=1 yearly=com_kw_16158_pu

New Load.load_p13ulv18883 conn=wye bus1=p13ulv18883.1.2.3 kV=0.48 Vminpu=0.8 Vmaxpu=1.2 model=1 kW=44.31195613436433 kvar=14.805752185721751 Phases=3 yearly=com_kw_35451_pu

New Load.load_p13ulv18884 conn=wye bus1=p13ulv18884.1.2.3 kV=0.48 Vminpu=0.8 Vmaxpu=1.2 model=1 kW=148.81907135536684 kvar=47.198555444933305 Phases=3 yearly=com_kw_28966_pu

New Load.load_p13ulv18885 conn=wye bus1=p13ulv18885.1.2.3 kV=0.48 Vminpu=0.8 Vmaxpu=1.2 model=1 kW=51.43197881624375 kvar=11.981755405534072 Phases=3 yearly=res_kw_2580_pu

New Load.load_p13ulv18888 conn=wye bus1=p13ulv18888.1.2.3 kV=0.48 Vminpu=0.8 Vmaxpu=1.2 model=1 kW=72.68435400950722 kvar=15.843321183427015 Phases=3 yearly=com_kw_35473_pu

New Load.load_p13ulv18889_1 conn=wye bus1=p13ulv18889.1 kV=0.12 Vminpu=0.8 Vmaxpu=1.2 model=1 kW=7.527077790806008 kvar=1.6597772333356942 Phases=1 yearly=com_kw_17961_pu

New Load.load_p13ulv18889_2 conn=wye bus1=p13ulv18889.2 kV=0.12 Vminpu=0.8 Vmaxpu=1.2 model=1 kW=7.527077790806008 kvar=1.6597772333356942 Phases=1 yearly=com_kw_17961_pu

New Load.load_p13ulv18973_1 conn=wye bus1=p13ulv18973.1 kV=0.12 Vminpu=0.8 Vmaxpu=1.2 model=1 kW=6.971725567398339 kvar=1.4854636601372835 Phases=1 yearly=com_kw_41653_pu

New Load.load_p13ulv18973_2 conn=wye bus1=p13ulv18973.2 kV=0.12 Vminpu=0.8 Vmaxpu=1.2 model=1 kW=6.971725567398339 kvar=1.4854636601372835 Phases=1 yearly=com_kw_41653_pu

New Load.load_p13ulv18974 conn=wye bus1=p13ulv18974.1.2.3 kV=0.48 Vminpu=0.8 Vmaxpu=1.2 model=1 kW=32.02881220402888 kvar=7.6252691627162115 Phases=3 yearly=com_kw_41603_pu

New Load.load_p13ulv18977_1 conn=wye bus1=p13ulv18977.1 kV=0.12 Vminpu=0.8 Vmaxpu=1.2 model=1 kW=6.318792642776981 kvar=1.3922760826289116 Phases=1 yearly=com_kw_41337_pu

New Load.load_p13ulv18977_2 conn=wye bus1=p13ulv18977.2 kV=0.12 Vminpu=0.8 Vmaxpu=1.2 model=1 kW=6.318792642776981 kvar=1.3922760826289116 Phases=1 yearly=com_kw_41337_pu

New Load.load_p13ulv18978_1 conn=wye bus1=p13ulv18978.1 kV=0.12 Vminpu=0.8 Vmaxpu=1.2 model=1 kW=13.89739246438032 kvar=0.8348396537012662 Phases=1 yearly=com_kw_2231_pu

New Load.load_p13ulv18978_2 conn=wye bus1=p13ulv18978.2 kV=0.12 Vminpu=0.8 Vmaxpu=1.2 model=1 kW=13.89739246438032 kvar=0.8348396537012662 Phases=1 yearly=com_kw_2231_pu

New Load.load_p13ulv18979 conn=wye bus1=p13ulv18979.1.2.3 kV=0.48 Vminpu=0.8 Vmaxpu=1.2 model=1 kW=36.75081551693853 kvar=9.479140315147053 Phases=3 yearly=com_kw_31773_pu

New Load.load_p13ulv18980_1 conn=wye bus1=p13ulv18980.1 kV=0.12 Vminpu=0.8 Vmaxpu=1.2 model=1 kW=3.189766707780742 kvar=0.7894989280735729 Phases=1 yearly=com_kw_1282_pu

New Load.load_p13ulv18980_2 conn=wye bus1=p13ulv18980.2 kV=0.12 Vminpu=0.8 Vmaxpu=1.2 model=1 kW=3.189766707780742 kvar=0.7894989280735729 Phases=1 yearly=com_kw_1282_pu

New Load.load_p13ulv18984_1 conn=wye bus1=p13ulv18984.1 kV=0.12 Vminpu=0.8 Vmaxpu=1.2 model=1 kW=4.446022124036096 kvar=1.3078779541876324 Phases=1 yearly=com_kw_2109_pu

New Load.load_p13ulv18984_2 conn=wye bus1=p13ulv18984.2 kV=0.12 Vminpu=0.8 Vmaxpu=1.2 model=1 kW=4.446022124036096 kvar=1.3078779541876324 Phases=1 yearly=com_kw_2109_pu

New Load.load_p13ulv18985_1 conn=wye bus1=p13ulv18984.1 kV=0.12 Vminpu=0.8 Vmaxpu=1.2 model=1 kW=6.044228536536975 kvar=1.36590600324157 Phases=1 yearly=com_kw_41364_pu

New Load.load_p13ulv18985_2 conn=wye bus1=p13ulv18984.2 kV=0.12 Vminpu=0.8 Vmaxpu=1.2 model=1 kW=6.044228536536975 kvar=1.36590600324157 Phases=1 yearly=com_kw_41364_pu

New Load.load_p13ulv18986_1 conn=wye bus1=p13ulv18986.1 kV=0.12 Vminpu=0.8 Vmaxpu=1.2 model=1 kW=2.9592297242003984 kvar=0.32182160792433295 Phases=1 yearly=com_kw_2322_pu

New Load.load_p13ulv18986_2 conn=wye bus1=p13ulv18986.2 kV=0.12 Vminpu=0.8 Vmaxpu=1.2 model=1 kW=2.9592297242003984 kvar=0.32182160792433295 Phases=1 yearly=com_kw_2322_pu

New Load.load_p13ulv18987 conn=wye bus1=p13ulv18987.1.2.3 kV=0.48 Vminpu=0.8 Vmaxpu=1.2 model=1 kW=22.39537742758338 kvar=5.938374310466917 Phases=3 yearly=com_kw_39927_pu

New Load.load_p13ulv18988_1 conn=wye bus1=p13ulv18988.1 kV=0.12 Vminpu=0.8 Vmaxpu=1.2 model=1 kW=5.385772821478587 kvar=1.6009172710699977 Phases=1 yearly=com_kw_20964_pu

New Load.load_p13ulv18988_2 conn=wye bus1=p13ulv18988.2 kV=0.12 Vminpu=0.8 Vmaxpu=1.2 model=1 kW=5.385772821478587 kvar=1.6009172710699977 Phases=1 yearly=com_kw_20964_pu

New Load.load_p13ulv18989_1 conn=wye bus1=p13ulv18988.1 kV=0.12 Vminpu=0.8 Vmaxpu=1.2 model=1 kW=6.044228536536975 kvar=1.36590600324157 Phases=1 yearly=com_kw_41364_pu

New Load.load_p13ulv18989_2 conn=wye bus1=p13ulv18988.2 kV=0.12 Vminpu=0.8 Vmaxpu=1.2 model=1 kW=6.044228536536975 kvar=1.36590600324157 Phases=1 yearly=com_kw_41364_pu

New Load.load_p13ulv18990_1 conn=wye bus1=p13ulv18990.1 kV=0.12 Vminpu=0.8 Vmaxpu=1.2 model=1 kW=3.587045329539647 kvar=1.3923216471043 Phases=1 yearly=com_kw_16138_pu

New Load.load_p13ulv18990_2 conn=wye bus1=p13ulv18990.2 kV=0.12 Vminpu=0.8 Vmaxpu=1.2 model=1 kW=3.587045329539647 kvar=1.3923216471043 Phases=1 yearly=com_kw_16138_pu

New Load.load_p13ulv18991 conn=wye bus1=p13ulv18991.1.2.3 kV=0.48 Vminpu=0.8 Vmaxpu=1.2 model=1 kW=31.87602339897625 kvar=7.195728596156308 Phases=3 yearly=com_kw_16753_pu

New Load.load_p13ulv18994 conn=wye bus1=p13ulv18994.1.2.3 kV=0.48 Vminpu=0.8 Vmaxpu=1.2 model=1 kW=19.93825968813809 kvar=5.465761656328654 Phases=3 yearly=com_kw_2524_pu

New Load.load_p13ulv18995 conn=wye bus1=p13ulv18994.1.2.3 kV=0.48 Vminpu=0.8 Vmaxpu=1.2 model=1 kW=37.480060778468264 kvar=13.233468047066737 Phases=3 yearly=com_kw_31868_pu

New Load.load_p13ulv18996_1 conn=wye bus1=p13ulv18996.1 kV=0.12 Vminpu=0.8 Vmaxpu=1.2 model=1 kW=1.4038244377730775 kvar=0.30842299757959857 Phases=1 yearly=com_kw_33938_pu

New Load.load_p13ulv18996_2 conn=wye bus1=p13ulv18996.2 kV=0.12 Vminpu=0.8 Vmaxpu=1.2 model=1 kW=1.4038244377730775 kvar=0.30842299757959857 Phases=1 yearly=com_kw_33938_pu

New Load.load_p13ulv19415 conn=wye bus1=p13ulv19415.1.2.3 kV=0.48 Vminpu=0.8 Vmaxpu=1.2 model=1 kW=31.728834431302758 kvar=6.9302942029254355 Phases=3 yearly=com_kw_34230_pu

New Load.load_p13ulv19416_1 conn=wye bus1=p13ulv19416.1 kV=0.12 Vminpu=0.8 Vmaxpu=1.2 model=1 kW=5.165054288882758 kvar=1.2649126303161744 Phases=1 yearly=res_kw_4496_pu

New Load.load_p13ulv19416_2 conn=wye bus1=p13ulv19416.2 kV=0.12 Vminpu=0.8 Vmaxpu=1.2 model=1 kW=5.165054288882758 kvar=1.2649126303161744 Phases=1 yearly=res_kw_4496_pu

New Load.load_p13ulv19417_1 conn=wye bus1=p13ulv19417.1 kV=0.12 Vminpu=0.8 Vmaxpu=1.2 model=1 kW=1.4027348768866257 kvar=0.4688021737709432 Phases=1 yearly=res_kw_11802_pu

New Load.load_p13ulv19417_2 conn=wye bus1=p13ulv19417.2 kV=0.12 Vminpu=0.8 Vmaxpu=1.2 model=1 kW=1.4027348768866257 kvar=0.4688021737709432 Phases=1 yearly=res_kw_11802_pu
