New Load.load_p13ulv1392_1 conn=wye bus1=p13ulv1392.1 kV=0.12 Vminpu=0.8 Vmaxpu=1.2 model=1 kW=10.25153400476516 kvar=0.22654318443913776 Phases=1 yearly=res_kw_7246_pu

New Load.load_p13ulv1392_2 conn=wye bus1=p13ulv1392.2 kV=0.12 Vminpu=0.8 Vmaxpu=1.2 model=1 kW=10.25153400476516 kvar=0.22654318443913776 Phases=1 yearly=res_kw_7246_pu

New Load.load_p13ulv1393_1 conn=wye bus1=p13ulv1393.1 kV=0.12 Vminpu=0.8 Vmaxpu=1.2 model=1 kW=4.649996289265807 kvar=0.5625044506543897 Phases=1 yearly=res_kw_411_pu

New Load.load_p13ulv1393_2 conn=wye bus1=p13ulv1393.2 kV=0.12 Vminpu=0.8 Vmaxpu=1.2 model=1 kW=4.649996289265807 kvar=0.5625044506543897 Phases=1 yearly=res_kw_411_pu

New Load.load_p13ulv1394_1 conn=wye bus1=p13ulv1394.1 kV=0.12 Vminpu=0.8 Vmaxpu=1.2 model=1 kW=5.61950712613045 kvar=0.5380510729366107 Phases=1 yearly=res_kw_14016_pu

New Load.load_p13ulv1394_2 conn=wye bus1=p13ulv1394.2 kV=0.12 Vminpu=0.8 Vmaxpu=1.2 model=1 kW=5.61950712613045 kvar=0.5380510729366107 Phases=1 yearly=res_kw_14016_pu

New Load.load_p13ulv1395_1 conn=wye bus1=p13ulv1395.1 kV=0.12 Vminpu=0.8 Vmaxpu=1.2 model=1 kW=6.803168854339079 kvar=0.6051906612375678 Phases=1 yearly=res_kw_8422_pu

New Load.load_p13ulv1395_2 conn=wye bus1=p13ulv1395.2 kV=0.12 Vminpu=0.8 Vmaxpu=1.2 model=1 kW=6.803168854339079 kvar=0.6051906612375678 Phases=1 yearly=res_kw_8422_pu

New Load.load_p13ulv1396_1 conn=wye bus1=p13ulv1396.1 kV=0.12 Vminpu=0.8 Vmaxpu=1.2 model=1 kW=8.445320136712393 kvar=1.7057595747683787 Phases=1 yearly=res_kw_11483_pu

New Load.load_p13ulv1396_2 conn=wye bus1=p13ulv1396.2 kV=0.12 Vminpu=0.8 Vmaxpu=1.2 model=1 kW=8.445320136712393 kvar=1.7057595747683787 Phases=1 yearly=res_kw_11483_pu

New Load.load_p13ulv1397_1 conn=wye bus1=p13ulv1397.1 kV=0.12 Vminpu=0.8 Vmaxpu=1.2 model=1 kW=4.013992703229786 kvar=0.0951464885764126 Phases=1 yearly=res_kw_6166_pu

New Load.load_p13ulv1397_2 conn=wye bus1=p13ulv1397.2 kV=0.12 Vminpu=0.8 Vmaxpu=1.2 model=1 kW=4.013992703229786 kvar=0.0951464885764126 Phases=1 yearly=res_kw_6166_pu

New Load.load_p13ulv1398_1 conn=wye bus1=p13ulv1398.1 kV=0.12 Vminpu=0.8 Vmaxpu=1.2 model=1 kW=4.525303114747101 kvar=0.4722687720205482 Phases=1 yearly=res_kw_1335_pu

New Load.load_p13ulv1398_2 conn=wye bus1=p13ulv1398.2 kV=0.12 Vminpu=0.8 Vmaxpu=1.2 model=1 kW=4.525303114747101 kvar=0.4722687720205482 Phases=1 yearly=res_kw_1335_pu

New Load.load_p13ulv1399_1 conn=wye bus1=p13ulv1399.1 kV=0.12 Vminpu=0.8 Vmaxpu=1.2 model=1 kW=3.550433595201957 kvar=1.0507616566322688 Phases=1 yearly=res_kw_8596_pu

New Load.load_p13ulv1399_2 conn=wye bus1=p13ulv1399.2 kV=0.12 Vminpu=0.8 Vmaxpu=1.2 model=1 kW=3.550433595201957 kvar=1.0507616566322688 Phases=1 yearly=res_kw_8596_pu

New Load.load_p13ulv1400_1 conn=wye bus1=p13ulv1400.1 kV=0.12 Vminpu=0.8 Vmaxpu=1.2 model=1 kW=5.454982521291287 kvar=1.3947139746694095 Phases=1 yearly=res_kw_2822_pu

New Load.load_p13ulv1400_2 conn=wye bus1=p13ulv1400.2 kV=0.12 Vminpu=0.8 Vmaxpu=1.2 model=1 kW=5.454982521291287 kvar=1.3947139746694095 Phases=1 yearly=res_kw_2822_pu

New Load.load_p13ulv1401_1 conn=wye bus1=p13ulv1401.1 kV=0.12 Vminpu=0.8 Vmaxpu=1.2 model=1 kW=5.710556278816139 kvar=1.4422687476240954 Phases=1 yearly=res_kw_9644_pu

New Load.load_p13ulv1401_2 conn=wye bus1=p13ulv1401.2 kV=0.12 Vminpu=0.8 Vmaxpu=1.2 model=1 kW=5.710556278816139 kvar=1.4422687476240954 Phases=1 yearly=res_kw_9644_pu

New Load.load_p13ulv1402_1 conn=wye bus1=p13ulv1402.1 kV=0.12 Vminpu=0.8 Vmaxpu=1.2 model=1 kW=4.688178108672784 kvar=1.0679126647787027 Phases=1 yearly=res_kw_7551_pu

New Load.load_p13ulv1402_2 conn=wye bus1=p13ulv1402.2 kV=0.12 Vminpu=0.8 Vmaxpu=1.2 model=1 kW=4.688178108672784 kvar=1.0679126647787027 Phases=1 yearly=res_kw_7551_pu

New Load.load_p13ulv1403_1 conn=wye bus1=p13ulv1403.1 kV=0.12 Vminpu=0.8 Vmaxpu=1.2 model=1 kW=3.8852876239711684 kvar=1.3803478249370804 Phases=1 yearly=res_kw_5472_pu

New Load.load_p13ulv1403_2 conn=wye bus1=p13ulv1403.2 kV=0.12 Vminpu=0.8 Vmaxpu=1.2 model=1 kW=3.8852876239711684 kvar=1.3803478249370804 Phases=1 yearly=res_kw_5472_pu

New Load.load_p13ulv1404_1 conn=wye bus1=p13ulv1404.1 kV=0.12 Vminpu=0.8 Vmaxpu=1.2 model=1 kW=1.7867427853897686 kvar=0.8458875050289713 Phases=1 yearly=res_kw_11106_pu

New Load.load_p13ulv1404_2 conn=wye bus1=p13ulv1404.2 kV=0.12 Vminpu=0.8 Vmaxpu=1.2 model=1 kW=1.7867427853897686 kvar=0.8458875050289713 Phases=1 yearly=res_kw_11106_pu

New Load.load_p13ulv1405_1 conn=wye bus1=p13ulv1405.1 kV=0.12 Vminpu=0.8 Vmaxpu=1.2 model=1 kW=2.2112727173478297 kvar=0.5308516080593575 Phases=1 yearly=res_kw_9776_pu

New Load.load_p13ulv1405_2 conn=wye bus1=p13ulv1405.2 kV=0.12 Vminpu=0.8 Vmaxpu=1.2 model=1 kW=2.2112727173478297 kvar=0.5308516080593575 Phases=1 yearly=res_kw_9776_pu

New Load.load_p13ulv1406_1 conn=wye bus1=p13ulv1406.1 kV=0.12 Vminpu=0.8 Vmaxpu=1.2 model=1 kW=11.586907037587332 kvar=1.9206571994210737 Phases=1 yearly=res_kw_4516_pu

New Load.load_p13ulv1406_2 conn=wye bus1=p13ulv1406.2 kV=0.12 Vminpu=0.8 Vmaxpu=1.2 model=1 kW=11.586907037587332 kvar=1.9206571994210737 Phases=1 yearly=res_kw_4516_pu

New Load.load_p13ulv1407_1 conn=wye bus1=p13ulv1407.1 kV=0.12 Vminpu=0.8 Vmaxpu=1.2 model=1 kW=5.057928166989142 kvar=0.1883767745844791 Phases=1 yearly=res_kw_15217_pu

New Load.load_p13ulv1407_2 conn=wye bus1=p13ulv1407.2 kV=0.12 Vminpu=0.8 Vmaxpu=1.2 model=1 kW=5.057928166989142 kvar=0.1883767745844791 Phases=1 yearly=res_kw_15217_pu

New Load.load_p13ulv1408_1 conn=wye bus1=p13ulv1408.1 kV=0.12 Vminpu=0.8 Vmaxpu=1.2 model=1 kW=6.094291627950691 kvar=1.3533337375727639 Phases=1 yearly=res_kw_7055_pu

New Load.load_p13ulv1408_2 conn=wye bus1=p13ulv1408.2 kV=0.12 Vminpu=0.8 Vmaxpu=1.2 model=1 kW=6.094291627950691 kvar=1.3533337375727639 Phases=1 yearly=res_kw_7055_pu

New Load.load_p13ulv1409_1 conn=wye bus1=p13ulv1409.1 kV=0.12 Vminpu=0.8 Vmaxpu=1.2 model=1 kW=6.430620543269981 kvar=1.2183460596356448 Phases=1 yearly=res_kw_940_pu

New Load.load_p13ulv1409_2 conn=wye bus1=p13ulv1409.2 kV=0.12 Vminpu=0.8 Vmaxpu=1.2 model=1 kW=6.430620543269981 kvar=1.2183460596356448 Phases=1 yearly=res_kw_940_pu

New Load.load_p13ulv1410_1 conn=wye bus1=p13ulv1410.1 kV=0.12 Vminpu=0.8 Vmaxpu=1.2 model=1 kW=7.5383806549144365 kvar=1.9579903741368643 Phases=1 yearly=res_kw_10081_pu

New Load.load_p13ulv1410_2 conn=wye bus1=p13ulv1410.2 kV=0.12 Vminpu=0.8 Vmaxpu=1.2 model=1 kW=7.5383806549144365 kvar=1.9579903741368643 Phases=1 yearly=res_kw_10081_pu

New Load.load_p13ulv1411_1 conn=wye bus1=p13ulv1411.1 kV=0.12 Vminpu=0.8 Vmaxpu=1.2 model=1 kW=9.263927066623483 kvar=1.3259716031877087 Phases=1 yearly=res_kw_14086_pu

New Load.load_p13ulv1411_2 conn=wye bus1=p13ulv1411.2 kV=0.12 Vminpu=0.8 Vmaxpu=1.2 model=1 kW=9.263927066623483 kvar=1.3259716031877087 Phases=1 yearly=res_kw_14086_pu

New Load.load_p13ulv1412_1 conn=wye bus1=p13ulv1412.1 kV=0.12 Vminpu=0.8 Vmaxpu=1.2 model=1 kW=10.254924542163067 kvar=0.6961979872098483 Phases=1 yearly=com_kw_29101_pu

New Load.load_p13ulv1412_2 conn=wye bus1=p13ulv1412.2 kV=0.12 Vminpu=0.8 Vmaxpu=1.2 model=1 kW=10.254924542163067 kvar=0.6961979872098483 Phases=1 yearly=com_kw_29101_pu

New Load.load_p13ulv1413_1 conn=wye bus1=p13ulv1413.1 kV=0.12 Vminpu=0.8 Vmaxpu=1.2 model=1 kW=7.833778744425944 kvar=1.9431968618355269 Phases=1 yearly=com_kw_16095_pu

New Load.load_p13ulv1413_2 conn=wye bus1=p13ulv1413.2 kV=0.12 Vminpu=0.8 Vmaxpu=1.2 model=1 kW=7.833778744425944 kvar=1.9431968618355269 Phases=1 yearly=com_kw_16095_pu

New Load.load_p13ulv1414 conn=wye bus1=p13ulv1414.1.2.3 kV=0.48 Vminpu=0.8 Vmaxpu=1.2 model=1 kW=29.18424835955856 kvar=6.2832141376595665 Phases=3 yearly=com_kw_2592_pu

New Load.load_p13ulv1415_1 conn=wye bus1=p13ulv1415.1 kV=0.12 Vminpu=0.8 Vmaxpu=1.2 model=1 kW=4.939731973048097 kvar=1.9332674592349213 Phases=1 yearly=res_kw_2099_pu

New Load.load_p13ulv1415_2 conn=wye bus1=p13ulv1415.2 kV=0.12 Vminpu=0.8 Vmaxpu=1.2 model=1 kW=4.939731973048097 kvar=1.9332674592349213 Phases=1 yearly=res_kw_2099_pu

New Load.load_p13ulv1416_1 conn=wye bus1=p13ulv1416.1 kV=0.12 Vminpu=0.8 Vmaxpu=1.2 model=1 kW=5.484916101426202 kvar=1.6302549722872932 Phases=1 yearly=com_kw_20964_pu

New Load.load_p13ulv1416_2 conn=wye bus1=p13ulv1416.2 kV=0.12 Vminpu=0.8 Vmaxpu=1.2 model=1 kW=5.484916101426202 kvar=1.6302549722872932 Phases=1 yearly=com_kw_20964_pu

New Load.load_p13ulv1417_1 conn=wye bus1=p13ulv1417.1 kV=0.12 Vminpu=0.8 Vmaxpu=1.2 model=1 kW=4.506951586679659 kvar=1.0694073002604405 Phases=1 yearly=res_kw_10492_pu

New Load.load_p13ulv1417_2 conn=wye bus1=p13ulv1417.2 kV=0.12 Vminpu=0.8 Vmaxpu=1.2 model=1 kW=4.506951586679659 kvar=1.0694073002604405 Phases=1 yearly=res_kw_10492_pu

New Load.load_p13ulv1418_1 conn=wye bus1=p13ulv1418.1 kV=0.12 Vminpu=0.8 Vmaxpu=1.2 model=1 kW=2.5975572325002942 kvar=0.41729917554764967 Phases=1 yearly=res_kw_2553_pu

New Load.load_p13ulv1418_2 conn=wye bus1=p13ulv1418.2 kV=0.12 Vminpu=0.8 Vmaxpu=1.2 model=1 kW=2.5975572325002942 kvar=0.41729917554764967 Phases=1 yearly=res_kw_2553_pu

New Load.load_p13ulv1419_1 conn=wye bus1=p13ulv1418.1 kV=0.12 Vminpu=0.8 Vmaxpu=1.2 model=1 kW=2.7096273035432676 kvar=0.9427200469116054 Phases=1 yearly=res_kw_804_pu

New Load.load_p13ulv1419_2 conn=wye bus1=p13ulv1418.2 kV=0.12 Vminpu=0.8 Vmaxpu=1.2 model=1 kW=2.7096273035432676 kvar=0.9427200469116054 Phases=1 yearly=res_kw_804_pu

New Load.load_p13ulv1420_1 conn=wye bus1=p13ulv1420.1 kV=0.12 Vminpu=0.8 Vmaxpu=1.2 model=1 kW=2.2112727173478297 kvar=0.5308516080593575 Phases=1 yearly=res_kw_9776_pu

New Load.load_p13ulv1420_2 conn=wye bus1=p13ulv1420.2 kV=0.12 Vminpu=0.8 Vmaxpu=1.2 model=1 kW=2.2112727173478297 kvar=0.5308516080593575 Phases=1 yearly=res_kw_9776_pu

New Load.load_p13ulv1421_1 conn=wye bus1=p13ulv1421.1 kV=0.12 Vminpu=0.8 Vmaxpu=1.2 model=1 kW=2.0010778415191557 kvar=0.1851858368488383 Phases=1 yearly=res_kw_451_pu

New Load.load_p13ulv1421_2 conn=wye bus1=p13ulv1421.2 kV=0.12 Vminpu=0.8 Vmaxpu=1.2 model=1 kW=2.0010778415191557 kvar=0.1851858368488383 Phases=1 yearly=res_kw_451_pu

New Load.load_p13ulv1422 conn=wye bus1=p13ulv1422.1.2.3 kV=0.48 Vminpu=0.8 Vmaxpu=1.2 model=1 kW=410.0668862229928 kvar=128.23371021715448 Phases=3 yearly=com_kw_15979_pu

New Load.load_p13ulv1692 conn=wye bus1=p13ulv1692.1.2.3 kV=0.48 Vminpu=0.8 Vmaxpu=1.2 model=1 kW=30.794949189655878 kvar=8.178206344788066 Phases=3 yearly=com_kw_18202_pu

New Load.load_p13ulv1694_1 conn=wye bus1=p13ulv1694.1 kV=0.12 Vminpu=0.8 Vmaxpu=1.2 model=1 kW=3.44520373572286 kvar=1.4184167138400507 Phases=1 yearly=res_kw_2053_pu

New Load.load_p13ulv1694_2 conn=wye bus1=p13ulv1694.2 kV=0.12 Vminpu=0.8 Vmaxpu=1.2 model=1 kW=3.44520373572286 kvar=1.4184167138400507 Phases=1 yearly=res_kw_2053_pu

New Load.load_p13ulv1695_1 conn=wye bus1=p13ulv1695.1 kV=0.12 Vminpu=0.8 Vmaxpu=1.2 model=1 kW=4.437029459195736 kvar=1.0499678885984898 Phases=1 yearly=res_kw_12436_pu

New Load.load_p13ulv1695_2 conn=wye bus1=p13ulv1695.2 kV=0.12 Vminpu=0.8 Vmaxpu=1.2 model=1 kW=4.437029459195736 kvar=1.0499678885984898 Phases=1 yearly=res_kw_12436_pu

New Load.load_p13ulv1696_1 conn=wye bus1=p13ulv1696.1 kV=0.12 Vminpu=0.8 Vmaxpu=1.2 model=1 kW=3.7027480090725917 kvar=1.5954864307330916 Phases=1 yearly=res_kw_2859_pu

New Load.load_p13ulv1696_2 conn=wye bus1=p13ulv1696.2 kV=0.12 Vminpu=0.8 Vmaxpu=1.2 model=1 kW=3.7027480090725917 kvar=1.5954864307330916 Phases=1 yearly=res_kw_2859_pu

New Load.load_p13ulv1697 conn=wye bus1=p13ulv1697.1.2.3 kV=0.48 Vminpu=0.8 Vmaxpu=1.2 model=1 kW=45.542905102781035 kvar=11.734933593933606 Phases=3 yearly=com_kw_39793_pu

New Load.load_p13ulv1698_1 conn=wye bus1=p13ulv1698.1 kV=0.12 Vminpu=0.8 Vmaxpu=1.2 model=1 kW=6.4959892926415455 kvar=1.6284085978310812 Phases=1 yearly=res_kw_4499_pu

New Load.load_p13ulv1698_2 conn=wye bus1=p13ulv1698.2 kV=0.12 Vminpu=0.8 Vmaxpu=1.2 model=1 kW=6.4959892926415455 kvar=1.6284085978310812 Phases=1 yearly=res_kw_4499_pu

New Load.load_p13ulv1699_1 conn=wye bus1=p13ulv1699.1 kV=0.12 Vminpu=0.8 Vmaxpu=1.2 model=1 kW=4.04122634225208 kvar=1.0603584246366708 Phases=1 yearly=res_kw_2372_pu

New Load.load_p13ulv1699_2 conn=wye bus1=p13ulv1699.2 kV=0.12 Vminpu=0.8 Vmaxpu=1.2 model=1 kW=4.04122634225208 kvar=1.0603584246366708 Phases=1 yearly=res_kw_2372_pu

New Load.load_p13ulv1700_1 conn=wye bus1=p13ulv1700.1 kV=0.12 Vminpu=0.8 Vmaxpu=1.2 model=1 kW=2.5975572325002942 kvar=0.41729917554764967 Phases=1 yearly=res_kw_2553_pu

New Load.load_p13ulv1700_2 conn=wye bus1=p13ulv1700.2 kV=0.12 Vminpu=0.8 Vmaxpu=1.2 model=1 kW=2.5975572325002942 kvar=0.41729917554764967 Phases=1 yearly=res_kw_2553_pu

New Load.load_p13ulv1701_1 conn=wye bus1=p13ulv1701.1 kV=0.12 Vminpu=0.8 Vmaxpu=1.2 model=1 kW=5.675652808285769 kvar=1.093081053561056 Phases=1 yearly=res_kw_3226_pu

New Load.load_p13ulv1701_2 conn=wye bus1=p13ulv1701.2 kV=0.12 Vminpu=0.8 Vmaxpu=1.2 model=1 kW=5.675652808285769 kvar=1.093081053561056 Phases=1 yearly=res_kw_3226_pu

New Load.load_p13ulv1702_1 conn=wye bus1=p13ulv1701.1 kV=0.12 Vminpu=0.8 Vmaxpu=1.2 model=1 kW=1.7531104687117933 kvar=0.8057742721936266 Phases=1 yearly=res_kw_200_pu

New Load.load_p13ulv1702_2 conn=wye bus1=p13ulv1701.2 kV=0.12 Vminpu=0.8 Vmaxpu=1.2 model=1 kW=1.7531104687117933 kvar=0.8057742721936266 Phases=1 yearly=res_kw_200_pu

New Load.load_p13ulv1703_1 conn=wye bus1=p13ulv1703.1 kV=0.12 Vminpu=0.8 Vmaxpu=1.2 model=1 kW=3.985032655077851 kvar=1.1048576365459057 Phases=1 yearly=res_kw_9804_pu

New Load.load_p13ulv1703_2 conn=wye bus1=p13ulv1703.2 kV=0.12 Vminpu=0.8 Vmaxpu=1.2 model=1 kW=3.985032655077851 kvar=1.1048576365459057 Phases=1 yearly=res_kw_9804_pu

New Load.load_p13ulv1704_1 conn=wye bus1=p13ulv1704.1 kV=0.12 Vminpu=0.8 Vmaxpu=1.2 model=1 kW=2.2640972637365526 kvar=0.8176434693117958 Phases=1 yearly=res_kw_5366_pu

New Load.load_p13ulv1704_2 conn=wye bus1=p13ulv1704.2 kV=0.12 Vminpu=0.8 Vmaxpu=1.2 model=1 kW=2.2640972637365526 kvar=0.8176434693117958 Phases=1 yearly=res_kw_5366_pu

New Load.load_p13ulv1705_1 conn=wye bus1=p13ulv1704.1 kV=0.12 Vminpu=0.8 Vmaxpu=1.2 model=1 kW=3.5821374260926486 kvar=0.18032929921833907 Phases=1 yearly=res_kw_11950_pu

New Load.load_p13ulv1705_2 conn=wye bus1=p13ulv1704.2 kV=0.12 Vminpu=0.8 Vmaxpu=1.2 model=1 kW=3.5821374260926486 kvar=0.18032929921833907 Phases=1 yearly=res_kw_11950_pu

New Load.load_p13ulv1706_1 conn=wye bus1=p13ulv1706.1 kV=0.12 Vminpu=0.8 Vmaxpu=1.2 model=1 kW=2.7096273035432676 kvar=0.9427200469116054 Phases=1 yearly=res_kw_804_pu

New Load.load_p13ulv1706_2 conn=wye bus1=p13ulv1706.2 kV=0.12 Vminpu=0.8 Vmaxpu=1.2 model=1 kW=2.7096273035432676 kvar=0.9427200469116054 Phases=1 yearly=res_kw_804_pu

New Load.load_p13ulv1707_1 conn=wye bus1=p13ulv1707.1 kV=0.12 Vminpu=0.8 Vmaxpu=1.2 model=1 kW=5.2988772366947785 kvar=1.224957792120878 Phases=1 yearly=res_kw_8249_pu

New Load.load_p13ulv1707_2 conn=wye bus1=p13ulv1707.2 kV=0.12 Vminpu=0.8 Vmaxpu=1.2 model=1 kW=5.2988772366947785 kvar=1.224957792120878 Phases=1 yearly=res_kw_8249_pu

New Load.load_p13ulv1708_1 conn=wye bus1=p13ulv1708.1 kV=0.12 Vminpu=0.8 Vmaxpu=1.2 model=1 kW=4.80943671944097 kvar=0.33228100650024006 Phases=1 yearly=res_kw_501_pu

New Load.load_p13ulv1708_2 conn=wye bus1=p13ulv1708.2 kV=0.12 Vminpu=0.8 Vmaxpu=1.2 model=1 kW=4.80943671944097 kvar=0.33228100650024006 Phases=1 yearly=res_kw_501_pu

New Load.load_p13ulv1709_1 conn=wye bus1=p13ulv1709.1 kV=0.12 Vminpu=0.8 Vmaxpu=1.2 model=1 kW=10.282982907991595 kvar=2.381125299760927 Phases=1 yearly=res_kw_7023_pu

New Load.load_p13ulv1709_2 conn=wye bus1=p13ulv1709.2 kV=0.12 Vminpu=0.8 Vmaxpu=1.2 model=1 kW=10.282982907991595 kvar=2.381125299760927 Phases=1 yearly=res_kw_7023_pu

New Load.load_p13ulv1710_1 conn=wye bus1=p13ulv1710.1 kV=0.12 Vminpu=0.8 Vmaxpu=1.2 model=1 kW=4.649996289265807 kvar=0.5625044506543897 Phases=1 yearly=res_kw_411_pu

New Load.load_p13ulv1710_2 conn=wye bus1=p13ulv1710.2 kV=0.12 Vminpu=0.8 Vmaxpu=1.2 model=1 kW=4.649996289265807 kvar=0.5625044506543897 Phases=1 yearly=res_kw_411_pu

New Load.load_p13ulv1711_1 conn=wye bus1=p13ulv1710.1 kV=0.12 Vminpu=0.8 Vmaxpu=1.2 model=1 kW=5.563631884037898 kvar=0.8694361070293551 Phases=1 yearly=res_kw_7222_pu

New Load.load_p13ulv1711_2 conn=wye bus1=p13ulv1710.2 kV=0.12 Vminpu=0.8 Vmaxpu=1.2 model=1 kW=5.563631884037898 kvar=0.8694361070293551 Phases=1 yearly=res_kw_7222_pu

New Load.load_p13ulv1712_1 conn=wye bus1=p13ulv1712.1 kV=0.12 Vminpu=0.8 Vmaxpu=1.2 model=1 kW=3.259318055448369 kvar=0.6524691998167856 Phases=1 yearly=res_kw_8369_pu

New Load.load_p13ulv1712_2 conn=wye bus1=p13ulv1712.2 kV=0.12 Vminpu=0.8 Vmaxpu=1.2 model=1 kW=3.259318055448369 kvar=0.6524691998167856 Phases=1 yearly=res_kw_8369_pu

New Load.load_p13ulv1713_1 conn=wye bus1=p13ulv1713.1 kV=0.12 Vminpu=0.8 Vmaxpu=1.2 model=1 kW=11.91557519055491 kvar=1.8720293465317184 Phases=1 yearly=res_kw_10108_pu

New Load.load_p13ulv1713_2 conn=wye bus1=p13ulv1713.2 kV=0.12 Vminpu=0.8 Vmaxpu=1.2 model=1 kW=11.91557519055491 kvar=1.8720293465317184 Phases=1 yearly=res_kw_10108_pu

New Load.load_p13ulv1714_1 conn=wye bus1=p13ulv1714.1 kV=0.12 Vminpu=0.8 Vmaxpu=1.2 model=1 kW=2.227237347131017 kvar=0.19709879277580364 Phases=1 yearly=res_kw_13866_pu

New Load.load_p13ulv1714_2 conn=wye bus1=p13ulv1714.2 kV=0.12 Vminpu=0.8 Vmaxpu=1.2 model=1 kW=2.227237347131017 kvar=0.19709879277580364 Phases=1 yearly=res_kw_13866_pu

New Load.load_p13ulv2630_1 conn=wye bus1=p13ulv2630.1 kV=0.12 Vminpu=0.8 Vmaxpu=1.2 model=1 kW=3.8655418025949513 kvar=0.5198334692942316 Phases=1 yearly=com_kw_2773_pu

New Load.load_p13ulv2630_2 conn=wye bus1=p13ulv2630.2 kV=0.12 Vminpu=0.8 Vmaxpu=1.2 model=1 kW=3.8655418025949513 kvar=0.5198334692942316 Phases=1 yearly=com_kw_2773_pu

New Load.load_p13ulv2631 conn=wye bus1=p13ulv2631.1.2.3 kV=0.48 Vminpu=0.8 Vmaxpu=1.2 model=1 kW=69.88060772799183 kvar=16.075053964188527 Phases=3 yearly=com_kw_2467_pu

New Load.load_p13ulv2632_1 conn=wye bus1=p13ulv2632.1 kV=0.12 Vminpu=0.8 Vmaxpu=1.2 model=1 kW=4.103256553041704 kvar=1.3827583282640359 Phases=1 yearly=res_kw_3390_pu

New Load.load_p13ulv2632_2 conn=wye bus1=p13ulv2632.2 kV=0.12 Vminpu=0.8 Vmaxpu=1.2 model=1 kW=4.103256553041704 kvar=1.3827583282640359 Phases=1 yearly=res_kw_3390_pu

New Load.load_p13ulv2639_1 conn=wye bus1=p13ulv2639.1 kV=0.12 Vminpu=0.8 Vmaxpu=1.2 model=1 kW=3.84353056223688 kvar=1.0285663602784454 Phases=1 yearly=res_kw_6730_pu

New Load.load_p13ulv2639_2 conn=wye bus1=p13ulv2639.2 kV=0.12 Vminpu=0.8 Vmaxpu=1.2 model=1 kW=3.84353056223688 kvar=1.0285663602784454 Phases=1 yearly=res_kw_6730_pu

New Load.load_p13ulv2640_1 conn=wye bus1=p13ulv2640.1 kV=0.12 Vminpu=0.8 Vmaxpu=1.2 model=1 kW=3.4950577425910927 kvar=0.9344550284674865 Phases=1 yearly=res_kw_9664_pu

New Load.load_p13ulv2640_2 conn=wye bus1=p13ulv2640.2 kV=0.12 Vminpu=0.8 Vmaxpu=1.2 model=1 kW=3.4950577425910927 kvar=0.9344550284674865 Phases=1 yearly=res_kw_9664_pu

New Load.load_p13ulv2641_1 conn=wye bus1=p13ulv2641.1 kV=0.12 Vminpu=0.8 Vmaxpu=1.2 model=1 kW=8.898343312387587 kvar=1.2494555564830871 Phases=1 yearly=res_kw_13906_pu

New Load.load_p13ulv2641_2 conn=wye bus1=p13ulv2641.2 kV=0.12 Vminpu=0.8 Vmaxpu=1.2 model=1 kW=8.898343312387587 kvar=1.2494555564830871 Phases=1 yearly=res_kw_13906_pu

New Load.load_p13ulv2642_1 conn=wye bus1=p13ulv2642.1 kV=0.12 Vminpu=0.8 Vmaxpu=1.2 model=1 kW=2.9220370741208184 kvar=1.0464788443047723 Phases=1 yearly=res_kw_9981_pu

New Load.load_p13ulv2642_2 conn=wye bus1=p13ulv2642.2 kV=0.12 Vminpu=0.8 Vmaxpu=1.2 model=1 kW=2.9220370741208184 kvar=1.0464788443047723 Phases=1 yearly=res_kw_9981_pu

New Load.load_p13ulv2643_1 conn=wye bus1=p13ulv2643.1 kV=0.12 Vminpu=0.8 Vmaxpu=1.2 model=1 kW=10.31108170202405 kvar=1.4617174194731857 Phases=1 yearly=res_kw_965_pu

New Load.load_p13ulv2643_2 conn=wye bus1=p13ulv2643.2 kV=0.12 Vminpu=0.8 Vmaxpu=1.2 model=1 kW=10.31108170202405 kvar=1.4617174194731857 Phases=1 yearly=res_kw_965_pu

New Load.load_p13ulv2644_1 conn=wye bus1=p13ulv2644.1 kV=0.12 Vminpu=0.8 Vmaxpu=1.2 model=1 kW=7.1786129293918615 kvar=1.999078824710138 Phases=1 yearly=res_kw_1044_pu

New Load.load_p13ulv2644_2 conn=wye bus1=p13ulv2644.2 kV=0.12 Vminpu=0.8 Vmaxpu=1.2 model=1 kW=7.1786129293918615 kvar=1.999078824710138 Phases=1 yearly=res_kw_1044_pu

New Load.load_p13ulv2645 conn=wye bus1=p13ulv2645.1.2.3 kV=0.48 Vminpu=0.8 Vmaxpu=1.2 model=1 kW=29.02102595038619 kvar=6.811896509271063 Phases=3 yearly=com_kw_17487_pu

New Load.load_p13ulv2648 conn=wye bus1=p13ulv2648.1.2.3 kV=0.48 Vminpu=0.8 Vmaxpu=1.2 model=1 kW=128.3306724563663 kvar=8.569660276600063 Phases=3 yearly=res_kw_7159_pu

New Load.load_p13ulv2649_1 conn=wye bus1=p13ulv2649.1 kV=0.12 Vminpu=0.8 Vmaxpu=1.2 model=1 kW=3.8411842985593005 kvar=0.3773214031684605 Phases=1 yearly=com_kw_41304_pu

New Load.load_p13ulv2649_2 conn=wye bus1=p13ulv2649.2 kV=0.12 Vminpu=0.8 Vmaxpu=1.2 model=1 kW=3.8411842985593005 kvar=0.3773214031684605 Phases=1 yearly=com_kw_41304_pu

New Load.load_p13ulv2650_1 conn=wye bus1=p13ulv2650.1 kV=0.12 Vminpu=0.8 Vmaxpu=1.2 model=1 kW=2.9444709764762544 kvar=0.8644719644335065 Phases=1 yearly=com_kw_41291_pu

New Load.load_p13ulv2650_2 conn=wye bus1=p13ulv2650.2 kV=0.12 Vminpu=0.8 Vmaxpu=1.2 model=1 kW=2.9444709764762544 kvar=0.8644719644335065 Phases=1 yearly=com_kw_41291_pu

New Load.load_p13ulv2651_1 conn=wye bus1=p13ulv2651.1 kV=0.12 Vminpu=0.8 Vmaxpu=1.2 model=1 kW=3.911342231959744 kvar=0.8292523799431203 Phases=1 yearly=com_kw_29197_pu

New Load.load_p13ulv2651_2 conn=wye bus1=p13ulv2651.2 kV=0.12 Vminpu=0.8 Vmaxpu=1.2 model=1 kW=3.911342231959744 kvar=0.8292523799431203 Phases=1 yearly=com_kw_29197_pu

New Load.load_p13ulv2652_1 conn=wye bus1=p13ulv2652.1 kV=0.12 Vminpu=0.8 Vmaxpu=1.2 model=1 kW=6.899156618174146 kvar=1.9602482538600556 Phases=1 yearly=com_kw_15916_pu

New Load.load_p13ulv2652_2 conn=wye bus1=p13ulv2652.2 kV=0.12 Vminpu=0.8 Vmaxpu=1.2 model=1 kW=6.899156618174146 kvar=1.9602482538600556 Phases=1 yearly=com_kw_15916_pu

New Load.load_p13ulv2680_1 conn=wye bus1=p13ulv2680.1 kV=0.12 Vminpu=0.8 Vmaxpu=1.2 model=1 kW=8.17741722022899 kvar=2.092854265685598 Phases=1 yearly=com_kw_17250_pu

New Load.load_p13ulv2680_2 conn=wye bus1=p13ulv2680.2 kV=0.12 Vminpu=0.8 Vmaxpu=1.2 model=1 kW=8.17741722022899 kvar=2.092854265685598 Phases=1 yearly=com_kw_17250_pu

New Load.load_p13ulv2686_1 conn=wye bus1=p13ulv2686.1 kV=0.12 Vminpu=0.8 Vmaxpu=1.2 model=1 kW=2.965698991960231 kvar=0.9240776131155559 Phases=1 yearly=res_kw_10202_pu

New Load.load_p13ulv2686_2 conn=wye bus1=p13ulv2686.2 kV=0.12 Vminpu=0.8 Vmaxpu=1.2 model=1 kW=2.965698991960231 kvar=0.9240776131155559 Phases=1 yearly=res_kw_10202_pu

New Load.load_p13ulv2687_1 conn=wye bus1=p13ulv2686.1 kV=0.12 Vminpu=0.8 Vmaxpu=1.2 model=1 kW=2.4549533772326604 kvar=0.9010542386153721 Phases=1 yearly=res_kw_6375_pu

New Load.load_p13ulv2687_2 conn=wye bus1=p13ulv2686.2 kV=0.12 Vminpu=0.8 Vmaxpu=1.2 model=1 kW=2.4549533772326604 kvar=0.9010542386153721 Phases=1 yearly=res_kw_6375_pu

New Load.load_p13ulv2690_1 conn=wye bus1=p13ulv2690.1 kV=0.12 Vminpu=0.8 Vmaxpu=1.2 model=1 kW=6.434381247431111 kvar=1.2435244633446798 Phases=1 yearly=res_kw_13124_pu

New Load.load_p13ulv2690_2 conn=wye bus1=p13ulv2690.2 kV=0.12 Vminpu=0.8 Vmaxpu=1.2 model=1 kW=6.434381247431111 kvar=1.2435244633446798 Phases=1 yearly=res_kw_13124_pu

New Load.load_p13ulv2691_1 conn=wye bus1=p13ulv2691.1 kV=0.12 Vminpu=0.8 Vmaxpu=1.2 model=1 kW=2.614361074501794 kvar=0.9432649217228006 Phases=1 yearly=res_kw_7999_pu

New Load.load_p13ulv2691_2 conn=wye bus1=p13ulv2691.2 kV=0.12 Vminpu=0.8 Vmaxpu=1.2 model=1 kW=2.614361074501794 kvar=0.9432649217228006 Phases=1 yearly=res_kw_7999_pu

New Load.load_p13ulv2700 conn=wye bus1=p13ulv2700.1.2.3 kV=0.48 Vminpu=0.8 Vmaxpu=1.2 model=1 kW=77.88328036474415 kvar=20.727523954545784 Phases=3 yearly=com_kw_20705_pu

New Load.load_p13ulv3213_1 conn=wye bus1=p13ulv3213.1 kV=0.12 Vminpu=0.8 Vmaxpu=1.2 model=1 kW=33.121033972146655 kvar=6.06761137087355 Phases=1 yearly=res_kw_13356_pu

New Load.load_p13ulv3213_2 conn=wye bus1=p13ulv3213.2 kV=0.12 Vminpu=0.8 Vmaxpu=1.2 model=1 kW=33.121033972146655 kvar=6.06761137087355 Phases=1 yearly=res_kw_13356_pu

New Load.load_p13ulv3214_1 conn=wye bus1=p13ulv3214.1 kV=0.12 Vminpu=0.8 Vmaxpu=1.2 model=1 kW=4.298732967846568 kvar=1.4010470651986036 Phases=1 yearly=res_kw_8466_pu

New Load.load_p13ulv3214_2 conn=wye bus1=p13ulv3214.2 kV=0.12 Vminpu=0.8 Vmaxpu=1.2 model=1 kW=4.298732967846568 kvar=1.4010470651986036 Phases=1 yearly=res_kw_8466_pu

New Load.load_p13ulv3215_1 conn=wye bus1=p13ulv3215.1 kV=0.12 Vminpu=0.8 Vmaxpu=1.2 model=1 kW=5.528048460350368 kvar=1.005083656664688 Phases=1 yearly=res_kw_4376_pu

New Load.load_p13ulv3215_2 conn=wye bus1=p13ulv3215.2 kV=0.12 Vminpu=0.8 Vmaxpu=1.2 model=1 kW=5.528048460350368 kvar=1.005083656664688 Phases=1 yearly=res_kw_4376_pu

New Load.load_p13ulv3216_1 conn=wye bus1=p13ulv3216.1 kV=0.12 Vminpu=0.8 Vmaxpu=1.2 model=1 kW=4.874403962694523 kvar=0.9992217738913552 Phases=1 yearly=res_kw_6544_pu

New Load.load_p13ulv3216_2 conn=wye bus1=p13ulv3216.2 kV=0.12 Vminpu=0.8 Vmaxpu=1.2 model=1 kW=4.874403962694523 kvar=0.9992217738913552 Phases=1 yearly=res_kw_6544_pu

New Load.load_p13ulv3217_1 conn=wye bus1=p13ulv3217.1 kV=0.12 Vminpu=0.8 Vmaxpu=1.2 model=1 kW=7.346744937941405 kvar=0.37527586426872656 Phases=1 yearly=res_kw_2907_pu

New Load.load_p13ulv3217_2 conn=wye bus1=p13ulv3217.2 kV=0.12 Vminpu=0.8 Vmaxpu=1.2 model=1 kW=7.346744937941405 kvar=0.37527586426872656 Phases=1 yearly=res_kw_2907_pu

New Load.load_p13ulv3218_1 conn=wye bus1=p13ulv3218.1 kV=0.12 Vminpu=0.8 Vmaxpu=1.2 model=1 kW=3.648018597217029 kvar=0.20014212396890727 Phases=1 yearly=res_kw_12143_pu

New Load.load_p13ulv3218_2 conn=wye bus1=p13ulv3218.2 kV=0.12 Vminpu=0.8 Vmaxpu=1.2 model=1 kW=3.648018597217029 kvar=0.20014212396890727 Phases=1 yearly=res_kw_12143_pu

New Load.load_p13ulv3219_1 conn=wye bus1=p13ulv3218.1 kV=0.12 Vminpu=0.8 Vmaxpu=1.2 model=1 kW=2.2112727173478297 kvar=0.5308516080593575 Phases=1 yearly=res_kw_9776_pu

New Load.load_p13ulv3219_2 conn=wye bus1=p13ulv3218.2 kV=0.12 Vminpu=0.8 Vmaxpu=1.2 model=1 kW=2.2112727173478297 kvar=0.5308516080593575 Phases=1 yearly=res_kw_9776_pu

New Load.load_p13ulv3220_1 conn=wye bus1=p13ulv3220.1 kV=0.12 Vminpu=0.8 Vmaxpu=1.2 model=1 kW=36.565648138905686 kvar=6.912175745185663 Phases=1 yearly=res_kw_11888_pu

New Load.load_p13ulv3220_2 conn=wye bus1=p13ulv3220.2 kV=0.12 Vminpu=0.8 Vmaxpu=1.2 model=1 kW=36.565648138905686 kvar=6.912175745185663 Phases=1 yearly=res_kw_11888_pu

New Load.load_p13ulv3224_1 conn=wye bus1=p13ulv3224.1 kV=0.12 Vminpu=0.8 Vmaxpu=1.2 model=1 kW=3.9194086398852614 kvar=0.9152676645531881 Phases=1 yearly=res_kw_5158_pu

New Load.load_p13ulv3224_2 conn=wye bus1=p13ulv3224.2 kV=0.12 Vminpu=0.8 Vmaxpu=1.2 model=1 kW=3.9194086398852614 kvar=0.9152676645531881 Phases=1 yearly=res_kw_5158_pu

New Load.load_p13ulv3225_1 conn=wye bus1=p13ulv3225.1 kV=0.12 Vminpu=0.8 Vmaxpu=1.2 model=1 kW=6.324729992074726 kvar=0.8549214797969529 Phases=1 yearly=res_kw_3243_pu

New Load.load_p13ulv3225_2 conn=wye bus1=p13ulv3225.2 kV=0.12 Vminpu=0.8 Vmaxpu=1.2 model=1 kW=6.324729992074726 kvar=0.8549214797969529 Phases=1 yearly=res_kw_3243_pu

New Load.load_p13ulv3594_1 conn=wye bus1=p13ulv3594.1 kV=0.12 Vminpu=0.8 Vmaxpu=1.2 model=1 kW=5.454982521291287 kvar=1.3947139746694095 Phases=1 yearly=res_kw_2822_pu

New Load.load_p13ulv3594_2 conn=wye bus1=p13ulv3594.2 kV=0.12 Vminpu=0.8 Vmaxpu=1.2 model=1 kW=5.454982521291287 kvar=1.3947139746694095 Phases=1 yearly=res_kw_2822_pu

New Load.load_p13ulv3595_1 conn=wye bus1=p13ulv3595.1 kV=0.12 Vminpu=0.8 Vmaxpu=1.2 model=1 kW=3.399494543495599 kvar=1.0033021212017004 Phases=1 yearly=res_kw_10595_pu

New Load.load_p13ulv3595_2 conn=wye bus1=p13ulv3595.2 kV=0.12 Vminpu=0.8 Vmaxpu=1.2 model=1 kW=3.399494543495599 kvar=1.0033021212017004 Phases=1 yearly=res_kw_10595_pu

New Load.load_p13ulv3596_1 conn=wye bus1=p13ulv3596.1 kV=0.12 Vminpu=0.8 Vmaxpu=1.2 model=1 kW=6.395514285789837 kvar=0.9522029171822473 Phases=1 yearly=res_kw_12674_pu

New Load.load_p13ulv3596_2 conn=wye bus1=p13ulv3596.2 kV=0.12 Vminpu=0.8 Vmaxpu=1.2 model=1 kW=6.395514285789837 kvar=0.9522029171822473 Phases=1 yearly=res_kw_12674_pu

New Load.load_p13ulv3597_1 conn=wye bus1=p13ulv3597.1 kV=0.12 Vminpu=0.8 Vmaxpu=1.2 model=1 kW=3.6747474220555727 kvar=0.11776568839120602 Phases=1 yearly=res_kw_319_pu

New Load.load_p13ulv3597_2 conn=wye bus1=p13ulv3597.2 kV=0.12 Vminpu=0.8 Vmaxpu=1.2 model=1 kW=3.6747474220555727 kvar=0.11776568839120602 Phases=1 yearly=res_kw_319_pu

New Load.load_p13ulv3598_1 conn=wye bus1=p13ulv3598.1 kV=0.12 Vminpu=0.8 Vmaxpu=1.2 model=1 kW=3.259318055448369 kvar=0.6524691998167856 Phases=1 yearly=res_kw_8369_pu

New Load.load_p13ulv3598_2 conn=wye bus1=p13ulv3598.2 kV=0.12 Vminpu=0.8 Vmaxpu=1.2 model=1 kW=3.259318055448369 kvar=0.6524691998167856 Phases=1 yearly=res_kw_8369_pu

New Load.load_p13ulv3599_1 conn=wye bus1=p13ulv3599.1 kV=0.12 Vminpu=0.8 Vmaxpu=1.2 model=1 kW=2.8960916576388023 kvar=0.9964685634210223 Phases=1 yearly=res_kw_12807_pu

New Load.load_p13ulv3599_2 conn=wye bus1=p13ulv3599.2 kV=0.12 Vminpu=0.8 Vmaxpu=1.2 model=1 kW=2.8960916576388023 kvar=0.9964685634210223 Phases=1 yearly=res_kw_12807_pu

New Load.load_p13ulv3600_1 conn=wye bus1=p13ulv3600.1 kV=0.12 Vminpu=0.8 Vmaxpu=1.2 model=1 kW=3.985032655077851 kvar=1.1048576365459057 Phases=1 yearly=res_kw_9804_pu

New Load.load_p13ulv3600_2 conn=wye bus1=p13ulv3600.2 kV=0.12 Vminpu=0.8 Vmaxpu=1.2 model=1 kW=3.985032655077851 kvar=1.1048576365459057 Phases=1 yearly=res_kw_9804_pu

New Load.load_p13ulv3601_1 conn=wye bus1=p13ulv3601.1 kV=0.12 Vminpu=0.8 Vmaxpu=1.2 model=1 kW=3.44520373572286 kvar=1.4184167138400507 Phases=1 yearly=res_kw_2053_pu

New Load.load_p13ulv3601_2 conn=wye bus1=p13ulv3601.2 kV=0.12 Vminpu=0.8 Vmaxpu=1.2 model=1 kW=3.44520373572286 kvar=1.4184167138400507 Phases=1 yearly=res_kw_2053_pu
